GPGPU-Sim version 4.2.0 (build gpgpu-sim_git-commit-13c67115070dc2f0876254a790d0238073ca364a-modified_590.0) configured with AccelWattch.

----------------------------------------------------------------------------
INFO - If you only care about PTX execution, ignore this message. GPGPU-Sim supports PTX execution in modern CUDA.
If you want to run PTXPLUS (sm_1x SASS) with a modern card configuration - set the envronment variable
$PTXAS_CUDA_INSTALL_PATH to point a CUDA version compabible with your card configurations (i.e. 8+ for PASCAL, 9+ for VOLTA etc..)
For example: "export $PTXAS_CUDA_INSTALL_PATH=/usr/local/cuda-9.1"

The following text describes why:
If you are using PTXPLUS, only sm_1x is supported and it requires that the app and simulator binaries are compiled in CUDA 4.2 or less.
The simulator requires it since CUDA headers desribe struct sizes in the exec which change from gen to gen.
The apps require 4.2 because new versions of CUDA tools have dropped parsing support for generating sm_1x
When running using modern config (i.e. volta) and PTXPLUS with CUDA 4.2, the $PTXAS_CUDA_INSTALL_PATH env variable is required to get proper register usage
(and hence occupancy) using a version of CUDA that knows the register usage on the real card.

----------------------------------------------------------------------------
setup_environment succeeded


        *** GPGPU-Sim Simulator Version 4.2.0  [build gpgpu-sim_git-commit-13c67115070dc2f0876254a790d0238073ca364a_modified_0.0] ***


GPGPU-Sim PTX: simulation mode 0 (can change with PTX_SIM_MODE_FUNC environment variable:
               1=functional simulation only, 0=detailed performance simulator)
GPGPU-Sim PTX: overriding embedded ptx with ptx file (PTX_SIM_USE_PTX_FILE is set)
GPGPU-Sim: Configuration options:

-save_embedded_ptx                      0 # saves ptx files embedded in binary as <n>.ptx
-keep                                   0 # keep intermediate files created by GPGPU-Sim when interfacing with external programs
-gpgpu_ptx_save_converted_ptxplus                    0 # Saved converted ptxplus to a file
-gpgpu_occupancy_sm_number                   60 # The SM number to pass to ptxas when getting register usage for computing GPU occupancy. This parameter is required in the config.
-ptx_opcode_latency_int         4,13,4,5,145 # Opcode latencies for integers <ADD,MAX,MUL,MAD,DIV,SHFL>Default 1,1,19,25,145,32
-ptx_opcode_latency_fp          4,13,4,5,39 # Opcode latencies for single precision floating points <ADD,MAX,MUL,MAD,DIV>Default 1,1,1,1,30
-ptx_opcode_latency_dp         8,19,8,8,330 # Opcode latencies for double precision floating points <ADD,MAX,MUL,MAD,DIV>Default 8,8,8,8,335
-ptx_opcode_latency_sfu                    8 # Opcode latencies for SFU instructionsDefault 8
-ptx_opcode_latency_tesnor                   64 # Opcode latencies for Tensor instructionsDefault 64
-ptx_opcode_initiation_int            1,2,2,2,8 # Opcode initiation intervals for integers <ADD,MAX,MUL,MAD,DIV,SHFL>Default 1,1,4,4,32,4
-ptx_opcode_initiation_fp            1,2,1,1,4 # Opcode initiation intervals for single precision floating points <ADD,MAX,MUL,MAD,DIV>Default 1,1,1,1,5
-ptx_opcode_initiation_dp          1,2,1,1,130 # Opcode initiation intervals for double precision floating points <ADD,MAX,MUL,MAD,DIV>Default 8,8,8,8,130
-ptx_opcode_initiation_sfu                    8 # Opcode initiation intervals for sfu instructionsDefault 8
-ptx_opcode_initiation_tensor                   64 # Opcode initiation intervals for tensor instructionsDefault 64
-cdp_latency         7200,8000,100,12000,1600 # CDP API latency <cudaStreamCreateWithFlags, cudaGetParameterBufferV2_init_perWarp, cudaGetParameterBufferV2_perKernel, cudaLaunchDeviceV2_init_perWarp, cudaLaunchDevicV2_perKernel>Default 7200,8000,100,12000,1600
-network_mode                           1 # Interconnection network mode
-inter_config_file   config_fermi_islip.icnt # Interconnection network config file
-icnt_in_buffer_limit                   64 # in_buffer_limit
-icnt_out_buffer_limit                   64 # out_buffer_limit
-icnt_subnets                           2 # subnets
-icnt_arbiter_algo                      1 # arbiter_algo
-icnt_verbose                           0 # inct_verbose
-icnt_grant_cycles                      1 # grant_cycles
-gpgpu_ptx_use_cuobjdump                    1 # Use cuobjdump to extract ptx and sass from binaries
-gpgpu_experimental_lib_support                    0 # Try to extract code from cuda libraries [Broken because of unknown cudaGetExportTable]
-checkpoint_option                      0 #  checkpointing flag (0 = no checkpoint)
-checkpoint_kernel                      1 #  checkpointing during execution of which kernel (1- 1st kernel)
-checkpoint_CTA                         0 #  checkpointing after # of CTA (< less than total CTA)
-resume_option                          0 #  resume flag (0 = no resume)
-resume_kernel                          0 #  Resume from which kernel (1= 1st kernel)
-resume_CTA                             0 #  resume from which CTA 
-checkpoint_CTA_t                       0 #  resume from which CTA 
-checkpoint_insn_Y                      0 #  resume from which CTA 
-gpgpu_ptx_convert_to_ptxplus                    0 # Convert SASS (native ISA) to ptxplus and run ptxplus
-gpgpu_ptx_force_max_capability                   60 # Force maximum compute capability
-gpgpu_ptx_inst_debug_to_file                    0 # Dump executed instructions' debug information to file
-gpgpu_ptx_inst_debug_file       inst_debug.txt # Executed instructions' debug output file
-gpgpu_ptx_inst_debug_thread_uid                    1 # Thread UID for executed instructions' debug output
-gpgpu_simd_model                       1 # 1 = post-dominator
-gpgpu_shader_core_pipeline              2048:32 # shader core pipeline config, i.e., {<nthread>:<warpsize>}
-gpgpu_tex_cache:l1  N:16:128:24,L:R:m:N:L,F:128:4,128:2 # per-shader L1 texture cache  (READ-ONLY) config  {<nsets>:<bsize>:<assoc>,<rep>:<wr>:<alloc>:<wr_alloc>,<mshr>:<N>:<merge>,<mq>:<rf>}
-gpgpu_const_cache:l1 N:128:64:2,L:R:f:N:L,A:2:64,4 # per-shader L1 constant memory cache  (READ-ONLY) config  {<nsets>:<bsize>:<assoc>,<rep>:<wr>:<alloc>:<wr_alloc>,<mshr>:<N>:<merge>,<mq>} 
-gpgpu_cache:il1     N:8:128:4,L:R:f:N:L,A:2:48,4 # shader L1 instruction cache config  {<nsets>:<bsize>:<assoc>,<rep>:<wr>:<alloc>:<wr_alloc>,<mshr>:<N>:<merge>,<mq>} 
-gpgpu_cache:dl1     N:64:128:6,L:L:m:N:H,A:128:8,8 # per-shader L1 data cache config  {<nsets>:<bsize>:<assoc>,<rep>:<wr>:<alloc>:<wr_alloc>,<mshr>:<N>:<merge>,<mq> | none}
-gpgpu_l1_cache_write_ratio                    0 # L1D write ratio
-gpgpu_l1_banks                         1 # The number of L1 cache banks
-gpgpu_l1_banks_byte_interleaving                   32 # l1 banks byte interleaving granularity
-gpgpu_l1_banks_hashing_function                    0 # l1 banks hashing function
-gpgpu_l1_latency                       1 # L1 Hit Latency
-gpgpu_smem_latency                     3 # smem Latency
-gpgpu_cache:dl1PrefL1                 none # per-shader L1 data cache config  {<nsets>:<bsize>:<assoc>,<rep>:<wr>:<alloc>:<wr_alloc>,<mshr>:<N>:<merge>,<mq> | none}
-gpgpu_cache:dl1PrefShared                 none # per-shader L1 data cache config  {<nsets>:<bsize>:<assoc>,<rep>:<wr>:<alloc>:<wr_alloc>,<mshr>:<N>:<merge>,<mq> | none}
-gpgpu_gmem_skip_L1D                    1 # global memory access skip L1D cache (implements -Xptxas -dlcm=cg, default=no skip)
-gpgpu_perfect_mem                      0 # enable perfect memory mode (no cache miss)
-n_regfile_gating_group                    4 # group of lanes that should be read/written together)
-gpgpu_clock_gated_reg_file                    0 # enable clock gated reg file for power calculations
-gpgpu_clock_gated_lanes                    0 # enable clock gated lanes for power calculations
-gpgpu_shader_registers                65536 # Number of registers per shader core. Limits number of concurrent CTAs. (default 8192)
-gpgpu_registers_per_block                 8192 # Maximum number of registers per CTA. (default 8192)
-gpgpu_ignore_resources_limitation                    0 # gpgpu_ignore_resources_limitation (default 0)
-gpgpu_shader_cta                      32 # Maximum number of concurrent CTAs in shader (default 32)
-gpgpu_num_cta_barriers                   16 # Maximum number of named barriers per CTA (default 16)
-gpgpu_n_clusters                      20 # number of processing clusters
-gpgpu_n_cores_per_cluster                    1 # number of simd cores per cluster
-gpgpu_n_cluster_ejection_buffer_size                    8 # number of packets in ejection buffer
-gpgpu_n_ldst_response_buffer_size                    2 # number of response packets in ld/st unit ejection buffer
-gpgpu_shmem_per_block                49152 # Size of shared memory per thread block or CTA (default 48kB)
-gpgpu_shmem_size                   98304 # Size of shared memory per shader core (default 16kB)
-gpgpu_shmem_option                     0 # Option list of shared memory sizes
-gpgpu_unified_l1d_size                    0 # Size of unified data cache(L1D + shared memory) in KB
-gpgpu_adaptive_cache_config                    0 # adaptive_cache_config
-gpgpu_shmem_sizeDefault                16384 # Size of shared memory per shader core (default 16kB)
-gpgpu_shmem_size_PrefL1                16384 # Size of shared memory per shader core (default 16kB)
-gpgpu_shmem_size_PrefShared                16384 # Size of shared memory per shader core (default 16kB)
-gpgpu_shmem_num_banks                   32 # Number of banks in the shared memory in each shader core (default 16)
-gpgpu_shmem_limited_broadcast                    0 # Limit shared memory to do one broadcast per cycle (default on)
-gpgpu_shmem_warp_parts                    1 # Number of portions a warp is divided into for shared memory bank conflict check 
-gpgpu_mem_unit_ports                    1 # The number of memory transactions allowed per core cycle
-gpgpu_shmem_warp_parts                    1 # Number of portions a warp is divided into for shared memory bank conflict check 
-gpgpu_warpdistro_shader                   -1 # Specify which shader core to collect the warp size distribution from
-gpgpu_warp_issue_shader                    0 # Specify which shader core to collect the warp issue distribution from
-gpgpu_local_mem_map                    1 # Mapping from local memory space address to simulated GPU physical address space (default = enabled)
-gpgpu_num_reg_banks                   32 # Number of register banks (default = 8)
-gpgpu_reg_bank_use_warp_id                    0 # Use warp ID in mapping registers to banks (default = off)
-gpgpu_sub_core_model                    0 # Sub Core Volta/Pascal model (default = off)
-gpgpu_enable_specialized_operand_collector                    1 # enable_specialized_operand_collector
-gpgpu_operand_collector_num_units_sp                   20 # number of collector units (default = 4)
-gpgpu_operand_collector_num_units_dp                    0 # number of collector units (default = 0)
-gpgpu_operand_collector_num_units_sfu                    4 # number of collector units (default = 4)
-gpgpu_operand_collector_num_units_int                    0 # number of collector units (default = 0)
-gpgpu_operand_collector_num_units_tensor_core                    4 # number of collector units (default = 4)
-gpgpu_operand_collector_num_units_mem                    8 # number of collector units (default = 2)
-gpgpu_operand_collector_num_units_gen                    0 # number of collector units (default = 0)
-gpgpu_operand_collector_num_in_ports_sp                    4 # number of collector unit in ports (default = 1)
-gpgpu_operand_collector_num_in_ports_dp                    0 # number of collector unit in ports (default = 0)
-gpgpu_operand_collector_num_in_ports_sfu                    1 # number of collector unit in ports (default = 1)
-gpgpu_operand_collector_num_in_ports_int                    0 # number of collector unit in ports (default = 0)
-gpgpu_operand_collector_num_in_ports_tensor_core                    1 # number of collector unit in ports (default = 1)
-gpgpu_operand_collector_num_in_ports_mem                    1 # number of collector unit in ports (default = 1)
-gpgpu_operand_collector_num_in_ports_gen                    0 # number of collector unit in ports (default = 0)
-gpgpu_operand_collector_num_out_ports_sp                    4 # number of collector unit in ports (default = 1)
-gpgpu_operand_collector_num_out_ports_dp                    0 # number of collector unit in ports (default = 0)
-gpgpu_operand_collector_num_out_ports_sfu                    1 # number of collector unit in ports (default = 1)
-gpgpu_operand_collector_num_out_ports_int                    0 # number of collector unit in ports (default = 0)
-gpgpu_operand_collector_num_out_ports_tensor_core                    1 # number of collector unit in ports (default = 1)
-gpgpu_operand_collector_num_out_ports_mem                    1 # number of collector unit in ports (default = 1)
-gpgpu_operand_collector_num_out_ports_gen                    0 # number of collector unit in ports (default = 0)
-gpgpu_coalesce_arch                   13 # Coalescing arch (GT200 = 13, Fermi = 20)
-gpgpu_num_sched_per_core                    2 # Number of warp schedulers per core
-gpgpu_max_insn_issue_per_warp                    2 # Max number of instructions that can be issued per warp in one cycle by scheduler (either 1 or 2)
-gpgpu_dual_issue_diff_exec_units                    1 # should dual issue use two different execution unit resources (Default = 1)
-gpgpu_simt_core_sim_order                    1 # Select the simulation order of cores in a cluster (0=Fix, 1=Round-Robin)
-gpgpu_pipeline_widths 4,0,0,1,1,4,0,0,1,1,6 # Pipeline widths ID_OC_SP,ID_OC_DP,ID_OC_INT,ID_OC_SFU,ID_OC_MEM,OC_EX_SP,OC_EX_DP,OC_EX_INT,OC_EX_SFU,OC_EX_MEM,EX_WB,ID_OC_TENSOR_CORE,OC_EX_TENSOR_CORE
-gpgpu_tensor_core_avail                    0 # Tensor Core Available (default=0)
-gpgpu_num_sp_units                     4 # Number of SP units (default=1)
-gpgpu_num_dp_units                     0 # Number of DP units (default=0)
-gpgpu_num_int_units                    0 # Number of INT units (default=0)
-gpgpu_num_sfu_units                    1 # Number of SF units (default=1)
-gpgpu_num_tensor_core_units                    0 # Number of tensor_core units (default=1)
-gpgpu_num_mem_units                    1 # Number if ldst units (default=1) WARNING: not hooked up to anything
-gpgpu_scheduler                      gto # Scheduler configuration: < lrr | gto | two_level_active > If two_level_active:<num_active_warps>:<inner_prioritization>:<outer_prioritization>For complete list of prioritization values see shader.h enum scheduler_prioritization_typeDefault: gto
-gpgpu_concurrent_kernel_sm                    0 # Support concurrent kernels on a SM (default = disabled)
-gpgpu_perfect_inst_const_cache                    0 # perfect inst and const cache mode, so all inst and const hits in the cache(default = disabled)
-gpgpu_inst_fetch_throughput                    1 # the number of fetched intruction per warp each cycle
-gpgpu_reg_file_port_throughput                    1 # the number ports of the register file
-specialized_unit_1         0,4,4,4,4,BRA # specialized unit config {<enabled>,<num_units>:<latency>:<initiation>,<ID_OC_SPEC>:<OC_EX_SPEC>,<NAME>}
-specialized_unit_2         0,4,4,4,4,BRA # specialized unit config {<enabled>,<num_units>:<latency>:<initiation>,<ID_OC_SPEC>:<OC_EX_SPEC>,<NAME>}
-specialized_unit_3         0,4,4,4,4,BRA # specialized unit config {<enabled>,<num_units>:<latency>:<initiation>,<ID_OC_SPEC>:<OC_EX_SPEC>,<NAME>}
-specialized_unit_4         0,4,4,4,4,BRA # specialized unit config {<enabled>,<num_units>:<latency>:<initiation>,<ID_OC_SPEC>:<OC_EX_SPEC>,<NAME>}
-specialized_unit_5         0,4,4,4,4,BRA # specialized unit config {<enabled>,<num_units>:<latency>:<initiation>,<ID_OC_SPEC>:<OC_EX_SPEC>,<NAME>}
-specialized_unit_6         0,4,4,4,4,BRA # specialized unit config {<enabled>,<num_units>:<latency>:<initiation>,<ID_OC_SPEC>:<OC_EX_SPEC>,<NAME>}
-specialized_unit_7         0,4,4,4,4,BRA # specialized unit config {<enabled>,<num_units>:<latency>:<initiation>,<ID_OC_SPEC>:<OC_EX_SPEC>,<NAME>}
-specialized_unit_8         0,4,4,4,4,BRA # specialized unit config {<enabled>,<num_units>:<latency>:<initiation>,<ID_OC_SPEC>:<OC_EX_SPEC>,<NAME>}
-gpgpu_perf_sim_memcpy                    1 # Fill the L2 cache on memcpy
-gpgpu_simple_dram_model                    0 # simple_dram_model with fixed latency and BW
-gpgpu_dram_scheduler                    1 # 0 = fifo, 1 = FR-FCFS (defaul)
-gpgpu_dram_partition_queues              8:8:8:8 # i2$:$2d:d2$:$2i
-l2_ideal                               0 # Use a ideal L2 cache that always hit
-gpgpu_cache:dl2     N:64:128:16,L:B:m:W:L,A:1024:1024,4:0,32 # unified banked L2 data cache config  {<nsets>:<bsize>:<assoc>,<rep>:<wr>:<alloc>:<wr_alloc>,<mshr>:<N>:<merge>,<mq>}
-gpgpu_cache:dl2_texture_only                    0 # L2 cache used for texture only
-gpgpu_n_mem                            8 # number of memory modules (e.g. memory controllers) in gpu
-gpgpu_n_sub_partition_per_mchannel                    2 # number of memory subpartition in each memory module
-gpgpu_n_mem_per_ctrlr                    1 # number of memory chips per memory controller
-gpgpu_memlatency_stat                   14 # track and display latency statistics 0x2 enables MC, 0x4 enables queue logs
-gpgpu_frfcfs_dram_sched_queue_size                   64 # 0 = unlimited (default); # entries per chip
-gpgpu_dram_return_queue_size                  116 # 0 = unlimited (default); # entries per chip
-gpgpu_dram_buswidth                    4 # default = 4 bytes (8 bytes per cycle at DDR)
-gpgpu_dram_burst_length                    8 # Burst length of each DRAM request (default = 4 data bus cycle)
-dram_data_command_freq_ratio                    4 # Frequency ratio between DRAM data bus and command bus (default = 2 times, i.e. DDR)
-gpgpu_dram_timing_opt nbk=16:CCD=2:RRD=6:RCD=12:RAS=28:RP=12:RC=40: CL=12:WL=4:CDLR=5:WR=12:nbkgrp=1:CCDL=0:RTPL=0 # DRAM timing parameters = {nbk:tCCD:tRRD:tRCD:tRAS:tRP:tRC:CL:WL:tCDLR:tWR:nbkgrp:tCCDL:tRTPL}
-gpgpu_l2_rop_latency                  120 # ROP queue latency (default 85)
-dram_latency                         100 # DRAM latency (default 30)
-dram_dual_bus_interface                    0 # dual_bus_interface (default = 0) 
-dram_bnk_indexing_policy                    0 # dram_bnk_indexing_policy (0 = normal indexing, 1 = Xoring with the higher bits) (Default = 0)
-dram_bnkgrp_indexing_policy                    0 # dram_bnkgrp_indexing_policy (0 = take higher bits, 1 = take lower bits) (Default = 0)
-dram_seperate_write_queue_enable                    0 # Seperate_Write_Queue_Enable
-dram_write_queue_size             32:28:16 # Write_Queue_Size
-dram_elimnate_rw_turnaround                    0 # elimnate_rw_turnaround i.e set tWTR and tRTW = 0
-icnt_flit_size                        32 # icnt_flit_size
-gpgpu_mem_addr_mapping dramid@8;00000000.00000000.00000000.00000000.0000RRRR.RRRRRRRR.RBBBCCCC.BCCSSSSS # mapping memory address to dram model {dramid@<start bit>;<memory address map>}
-gpgpu_mem_addr_test                    0 # run sweep test to check address mapping for aliased address
-gpgpu_mem_address_mask                    1 # 0 = old addressing mask, 1 = new addressing mask, 2 = new add. mask + flipped bank sel and chip sel bits
-gpgpu_memory_partition_indexing                    0 # 0 = no indexing, 1 = bitwise xoring, 2 = IPoly, 3 = custom indexing
-accelwattch_xml_file accelwattch_sass_sim.xml # AccelWattch XML file
-power_simulation_enabled                    0 # Turn on power simulator (1=On, 0=Off)
-power_per_cycle_dump                    0 # Dump detailed power output each cycle
-hw_perf_file_name            hw_perf.csv # Hardware Performance Statistics file
-hw_perf_bench_name                       # Kernel Name in Hardware Performance Statistics file
-power_simulation_mode                    0 # Switch performance counter input for power simulation (0=Sim, 1=HW, 2=HW-Sim Hybrid)
-dvfs_enabled                           0 # Turn on DVFS for power model
-aggregate_power_stats                    0 # Accumulate power across all kernels
-accelwattch_hybrid_perfsim_L1_RH                    0 # Get L1 Read Hits for Accelwattch-Hybrid from Accel-Sim
-accelwattch_hybrid_perfsim_L1_RM                    0 # Get L1 Read Misses for Accelwattch-Hybrid from Accel-Sim
-accelwattch_hybrid_perfsim_L1_WH                    0 # Get L1 Write Hits for Accelwattch-Hybrid from Accel-Sim
-accelwattch_hybrid_perfsim_L1_WM                    0 # Get L1 Write Misses for Accelwattch-Hybrid from Accel-Sim
-accelwattch_hybrid_perfsim_L2_RH                    0 # Get L2 Read Hits for Accelwattch-Hybrid from Accel-Sim
-accelwattch_hybrid_perfsim_L2_RM                    0 # Get L2 Read Misses for Accelwattch-Hybrid from Accel-Sim
-accelwattch_hybrid_perfsim_L2_WH                    0 # Get L2 Write Hits for Accelwattch-Hybrid from Accel-Sim
-accelwattch_hybrid_perfsim_L2_WM                    0 # Get L2 Write Misses for Accelwattch-Hybrid from Accel-Sim
-accelwattch_hybrid_perfsim_CC_ACC                    0 # Get Constant Cache Acesses for Accelwattch-Hybrid from Accel-Sim
-accelwattch_hybrid_perfsim_SHARED_ACC                    0 # Get Shared Memory Acesses for Accelwattch-Hybrid from Accel-Sim
-accelwattch_hybrid_perfsim_DRAM_RD                    0 # Get DRAM Reads for Accelwattch-Hybrid from Accel-Sim
-accelwattch_hybrid_perfsim_DRAM_WR                    0 # Get DRAM Writes for Accelwattch-Hybrid from Accel-Sim
-accelwattch_hybrid_perfsim_NOC                    0 # Get Interconnect Acesses for Accelwattch-Hybrid from Accel-Sim
-accelwattch_hybrid_perfsim_PIPE_DUTY                    0 # Get Pipeline Duty Cycle Acesses for Accelwattch-Hybrid from Accel-Sim
-accelwattch_hybrid_perfsim_NUM_SM_IDLE                    0 # Get Number of Idle SMs for Accelwattch-Hybrid from Accel-Sim
-accelwattch_hybrid_perfsim_CYCLES                    0 # Get Executed Cycles for Accelwattch-Hybrid from Accel-Sim
-accelwattch_hybrid_perfsim_VOLTAGE                    0 # Get Chip Voltage for Accelwattch-Hybrid from Accel-Sim
-power_trace_enabled                    0 # produce a file for the power trace (1=On, 0=Off)
-power_trace_zlevel                     6 # Compression level of the power trace output log (0=no comp, 9=highest)
-steady_power_levels_enabled                    0 # produce a file for the steady power levels (1=On, 0=Off)
-steady_state_definition                  8:4 # allowed deviation:number of samples
-gpgpu_max_cycle                        0 # terminates gpu simulation early (0 = no limit)
-gpgpu_max_insn                         0 # terminates gpu simulation early (0 = no limit)
-gpgpu_max_cta                          0 # terminates gpu simulation early (0 = no limit)
-gpgpu_max_completed_cta                    0 # terminates gpu simulation early (0 = no limit)
-gpgpu_runtime_stat                   500 # display runtime statistics such as dram utilization {<freq>:<flag>}
-liveness_message_freq                    1 # Minimum number of seconds between simulation liveness messages (0 = always print)
-gpgpu_compute_capability_major                    7 # Major compute capability version number
-gpgpu_compute_capability_minor                    0 # Minor compute capability version number
-gpgpu_flush_l1_cache                    0 # Flush L1 cache at the end of each kernel call
-gpgpu_flush_l2_cache                    0 # Flush L2 cache at the end of each kernel call
-gpgpu_deadlock_detect                    1 # Stop the simulation at deadlock (1=on (default), 0=off)
-gpgpu_ptx_instruction_classification                    0 # if enabled will classify ptx instruction types per kernel (Max 255 kernels now)
-gpgpu_ptx_sim_mode                     0 # Select between Performance (default) or Functional simulation (1)
-gpgpu_clock_domains 1607.0:1607.0:1607.0:2500.0 # Clock Domain Frequencies in MhZ {<Core Clock>:<ICNT Clock>:<L2 Clock>:<DRAM Clock>}
-gpgpu_max_concurrent_kernel                   32 # maximum kernels that can run concurrently on GPU, set this value according to max resident grids for your compute capability
-gpgpu_cflog_interval                    0 # Interval between each snapshot in control flow logger
-visualizer_enabled                     0 # Turn on visualizer output (1=On, 0=Off)
-visualizer_outputfile                 NULL # Specifies the output log file for visualizer
-visualizer_zlevel                      6 # Compression level of the visualizer output log (0=no comp, 9=highest)
-gpgpu_stack_size_limit                 1024 # GPU thread stack size
-gpgpu_heap_size_limit              8388608 # GPU malloc heap size 
-gpgpu_runtime_sync_depth_limit                    2 # GPU device runtime synchronize depth
-gpgpu_runtime_pending_launch_count_limit                 2048 # GPU device runtime pending launch count
-trace_enabled                          0 # Turn on traces
-trace_components                    none # comma seperated list of traces to enable. Complete list found in trace_streams.tup. Default none
-trace_sampling_core                    0 # The core which is printed using CORE_DPRINTF. Default 0
-trace_sampling_memory_partition                   -1 # The memory partition which is printed using MEMPART_DPRINTF. Default -1 (i.e. all)
-enable_ptx_file_line_stats                    1 # Turn on PTX source line statistic profiling. (1 = On)
-ptx_line_stats_filename gpgpu_inst_stats.txt # Output file for PTX source line statistics.
-gpgpu_kernel_launch_latency                    0 # Kernel launch latency in cycles. Default: 0
-gpgpu_cdp_enabled                      0 # Turn on CDP
-gpgpu_TB_launch_latency                    0 # thread block launch latency in cycles. Default: 0
DRAM Timing Options:
nbk                                    16 # number of banks
CCD                                     2 # column to column delay
RRD                                     6 # minimal delay between activation of rows in different banks
RCD                                    12 # row to column delay
RAS                                    28 # time needed to activate row
RP                                     12 # time needed to precharge (deactivate) row
RC                                     40 # row cycle time
CDLR                                    5 # switching from write to read (changes tWTR)
WR                                     12 # last data-in to row precharge
CL                                     12 # CAS latency
WL                                      4 # Write latency
nbkgrp                                  1 # number of bank groups
CCDL                                    0 # column to column delay between accesses to different bank groups
RTPL                                    0 # read to precharge delay between accesses to different bank groups
Total number of memory sub partition = 16
addr_dec_mask[CHIP]  = 0000000000000700 	high:11 low:8
addr_dec_mask[BK]    = 0000000000038080 	high:18 low:7
addr_dec_mask[ROW]   = 000000007ffc0000 	high:31 low:18
addr_dec_mask[COL]   = 000000000000787f 	high:15 low:0
addr_dec_mask[BURST] = 000000000000001f 	high:5 low:0
sub_partition_id_mask = 0000000000000080
GPGPU-Sim uArch: clock freqs: 1607000000.000000:1607000000.000000:1607000000.000000:2500000000.000000
GPGPU-Sim uArch: clock periods: 0.00000000062227753578:0.00000000062227753578:0.00000000062227753578:0.00000000040000000000
*** Initializing Memory Statistics ***
GPGPU-Sim uArch: interconnect node map (shaderID+MemID to icntID)
GPGPU-Sim uArch: Memory nodes ID start from index: 20
GPGPU-Sim uArch:    0   1   2   3   4   5   6
GPGPU-Sim uArch:    7   8   9  10  11  12  13
GPGPU-Sim uArch:   14  15  16  17  18  19  20
GPGPU-Sim uArch:   21  22  23  24  25  26  27
GPGPU-Sim uArch:   28  29  30  31  32  33  34
GPGPU-Sim uArch:   35  36  37  38  39  40  41
GPGPU-Sim uArch:   42  43  44  45  46  47  48
GPGPU-Sim uArch:   49
GPGPU-Sim uArch: interconnect node reverse map (icntID to shaderID+MemID)
GPGPU-Sim uArch: Memory nodes start from ID: 20
GPGPU-Sim uArch:    0   1   2   3   4   5   6
GPGPU-Sim uArch:    7   8   9  10  11  12  13
GPGPU-Sim uArch:   14  15  16  17  18  19  20
GPGPU-Sim uArch:   21  22  23  24  25  26  27
GPGPU-Sim uArch:   28  29  30  31  32  33  34
GPGPU-Sim uArch:   35  36  37  38  39  40  41
GPGPU-Sim uArch:   42  43  44  45  46  47  48
GPGPU-Sim uArch:   49
e90e1593f550adeda12807e5bb92529b  /benchrun/accelsim-ptx/sm6_gtx1080/babelstream/input-arraysize-10240-numtimes-1/CUDAStream
Extracting PTX file and ptxas options    1: CUDAStream.1.sm_30.ptx -arch=sm_30
GPGPU-Sim uArch: performance model initialization complete.
self exe links to: /benchrun/accelsim-ptx/sm6_gtx1080/babelstream/input-arraysize-10240-numtimes-1/CUDAStream
self exe links to: /benchrun/accelsim-ptx/sm6_gtx1080/babelstream/input-arraysize-10240-numtimes-1/CUDAStream
10.1
GPGPU-Sim PTX: __cudaRegisterFatBinary, fat_cubin_handle = 1, filename=default
self exe links to: /benchrun/accelsim-ptx/sm6_gtx1080/babelstream/input-arraysize-10240-numtimes-1/CUDAStream
Running md5sum using "md5sum /benchrun/accelsim-ptx/sm6_gtx1080/babelstream/input-arraysize-10240-numtimes-1/CUDAStream "
self exe links to: /benchrun/accelsim-ptx/sm6_gtx1080/babelstream/input-arraysize-10240-numtimes-1/CUDAStream
Extracting specific PTX file named CUDAStream.1.sm_30.ptx 
GPGPU-Sim PTX: __cudaRegisterFunction _Z11init_kernelIdEvPT_S1_S1_S0_S0_S0_ : hostFun 0x0x55a56a2104f1, fat_cubin_handle = 1
GPGPU-Sim PTX: Parsing CUDAStream.1.sm_30.ptx
GPGPU-Sim PTX: instruction assembly for function '_Z11copy_kernelIfEvPKT_PS0_'...   done.
GPGPU-Sim PTX: instruction assembly for function '_Z10add_kernelIfEvPKT_S2_PS0_'...   done.
GPGPU-Sim PTX: instruction assembly for function '_Z10mul_kernelIfEvPT_PKS0_'...   done.
GPGPU-Sim PTX: instruction assembly for function '_Z12triad_kernelIfEvPT_PKS0_S3_'...   done.
GPGPU-Sim PTX: instruction assembly for function '_Z14nstream_kernelIfEvPT_PKS0_S3_'...   done.
GPGPU-Sim PTX: allocating shared region for "_ZZ10dot_kernelIfEvPKT_S2_PS0_iE6tb_sum" from 0x0 to 0x1000 (shared memory space)
GPGPU-Sim PTX: instruction assembly for function '_Z10dot_kernelIfEvPKT_S2_PS0_i'...   done.
GPGPU-Sim PTX: instruction assembly for function '_Z11init_kernelIfEvPT_S1_S1_S0_S0_S0_'...   done.
GPGPU-Sim PTX: instruction assembly for function '_Z11copy_kernelIdEvPKT_PS0_'...   done.
GPGPU-Sim PTX: instruction assembly for function '_Z10add_kernelIdEvPKT_S2_PS0_'...   done.
GPGPU-Sim PTX: instruction assembly for function '_Z10mul_kernelIdEvPT_PKS0_'...   done.
GPGPU-Sim PTX: instruction assembly for function '_Z12triad_kernelIdEvPT_PKS0_S3_'...   done.
GPGPU-Sim PTX: instruction assembly for function '_Z14nstream_kernelIdEvPT_PKS0_S3_'...   done.
GPGPU-Sim PTX: allocating shared region for "_ZZ10dot_kernelIdEvPKT_S2_PS0_iE6tb_sum" from 0x0 to 0x2000 (shared memory space)
GPGPU-Sim PTX: instruction assembly for function '_Z10dot_kernelIdEvPKT_S2_PS0_i'...   done.
GPGPU-Sim PTX: instruction assembly for function '_Z11init_kernelIdEvPT_S1_S1_S0_S0_S0_'...   done.
GPGPU-Sim PTX: finished parsing EMBEDDED .ptx file CUDAStream.1.sm_30.ptx
GPGPU-Sim PTX: loading globals with explicit initializers... 
GPGPU-Sim PTX: finished loading globals (0 bytes total).
GPGPU-Sim PTX: loading constants with explicit initializers...  done.
GPGPU-Sim PTX: Loading PTXInfo from CUDAStream.1.sm_30.ptx
GPGPU-Sim PTX: Kernel '_Z11init_kernelIdEvPT_S1_S1_S0_S0_S0_' : regs=14, lmem=0, smem=0, cmem=368
GPGPU-Sim PTX: Kernel '_Z10dot_kernelIdEvPKT_S2_PS0_i' : regs=12, lmem=0, smem=8192, cmem=348
GPGPU-Sim PTX: Kernel '_Z14nstream_kernelIdEvPT_PKS0_S3_' : regs=12, lmem=0, smem=0, cmem=352
GPGPU-Sim PTX: Kernel '_Z12triad_kernelIdEvPT_PKS0_S3_' : regs=10, lmem=0, smem=0, cmem=352
GPGPU-Sim PTX: Kernel '_Z10mul_kernelIdEvPT_PKS0_' : regs=8, lmem=0, smem=0, cmem=344
GPGPU-Sim PTX: Kernel '_Z10add_kernelIdEvPKT_S2_PS0_' : regs=10, lmem=0, smem=0, cmem=344
GPGPU-Sim PTX: Kernel '_Z11copy_kernelIdEvPKT_PS0_' : regs=6, lmem=0, smem=0, cmem=336
GPGPU-Sim PTX: Kernel '_Z11init_kernelIfEvPT_S1_S1_S0_S0_S0_' : regs=10, lmem=0, smem=0, cmem=356
GPGPU-Sim PTX: Kernel '_Z10dot_kernelIfEvPKT_S2_PS0_i' : regs=12, lmem=0, smem=4096, cmem=348
GPGPU-Sim PTX: Kernel '_Z14nstream_kernelIfEvPT_PKS0_S3_' : regs=10, lmem=0, smem=0, cmem=348
GPGPU-Sim PTX: Kernel '_Z12triad_kernelIfEvPT_PKS0_S3_' : regs=8, lmem=0, smem=0, cmem=348
GPGPU-Sim PTX: Kernel '_Z10mul_kernelIfEvPT_PKS0_' : regs=6, lmem=0, smem=0, cmem=336
GPGPU-Sim PTX: Kernel '_Z10add_kernelIfEvPKT_S2_PS0_' : regs=8, lmem=0, smem=0, cmem=344
GPGPU-Sim PTX: Kernel '_Z11copy_kernelIfEvPKT_PS0_' : regs=6, lmem=0, smem=0, cmem=336
GPGPU-Sim PTX: __cudaRegisterFunction _Z10dot_kernelIdEvPKT_S2_PS0_i : hostFun 0x0x55a56a2104bf, fat_cubin_handle = 1
GPGPU-Sim PTX: __cudaRegisterFunction _Z14nstream_kernelIdEvPT_PKS0_S3_ : hostFun 0x0x55a56a210491, fat_cubin_handle = 1
GPGPU-Sim PTX: __cudaRegisterFunction _Z12triad_kernelIdEvPT_PKS0_S3_ : hostFun 0x0x55a56a210463, fat_cubin_handle = 1
GPGPU-Sim PTX: __cudaRegisterFunction _Z10mul_kernelIdEvPT_PKS0_ : hostFun 0x0x55a56a21043d, fat_cubin_handle = 1
GPGPU-Sim PTX: __cudaRegisterFunction _Z10add_kernelIdEvPKT_S2_PS0_ : hostFun 0x0x55a56a21040f, fat_cubin_handle = 1
GPGPU-Sim PTX: __cudaRegisterFunction _Z11copy_kernelIdEvPKT_PS0_ : hostFun 0x0x55a56a2103e9, fat_cubin_handle = 1
GPGPU-Sim PTX: __cudaRegisterFunction _Z11init_kernelIfEvPT_S1_S1_S0_S0_S0_ : hostFun 0x0x55a56a21039d, fat_cubin_handle = 1
GPGPU-Sim PTX: __cudaRegisterFunction _Z10dot_kernelIfEvPKT_S2_PS0_i : hostFun 0x0x55a56a21036b, fat_cubin_handle = 1
GPGPU-Sim PTX: __cudaRegisterFunction _Z14nstream_kernelIfEvPT_PKS0_S3_ : hostFun 0x0x55a56a21033d, fat_cubin_handle = 1
GPGPU-Sim PTX: __cudaRegisterFunction _Z12triad_kernelIfEvPT_PKS0_S3_ : hostFun 0x0x55a56a21030f, fat_cubin_handle = 1
GPGPU-Sim PTX: __cudaRegisterFunction _Z10mul_kernelIfEvPT_PKS0_ : hostFun 0x0x55a56a2102e9, fat_cubin_handle = 1
GPGPU-Sim PTX: __cudaRegisterFunction _Z10add_kernelIfEvPKT_S2_PS0_ : hostFun 0x0x55a56a2102bb, fat_cubin_handle = 1
GPGPU-Sim PTX: __cudaRegisterFunction _Z11copy_kernelIfEvPKT_PS0_ : hostFun 0x0x55a56a210295, fat_cubin_handle = 1
BabelStream
Version: 4.0
Implementation: CUDA
Running kernels 1 times
Precision: double
Array size: 0.1 MB (=0.0 GB)
Total size: 0.2 MB (=0.0 GB)
Using CUDA device GPGPU-Sim_vGPGPU-Sim Simulator Version 4.2.0 
Driver: 10010
GPGPU-Sim PTX: Setting up arguments for 8 bytes starting at 0x7fffcd410da8..
GPGPU-Sim PTX: Setting up arguments for 8 bytes starting at 0x7fffcd410da0..
GPGPU-Sim PTX: Setting up arguments for 8 bytes starting at 0x7fffcd410d98..
GPGPU-Sim PTX: Setting up arguments for 8 bytes starting at 0x7fffcd410d90..
GPGPU-Sim PTX: Setting up arguments for 8 bytes starting at 0x7fffcd410d88..
GPGPU-Sim PTX: Setting up arguments for 8 bytes starting at 0x7fffcd410d80..

GPGPU-Sim PTX: cudaLaunch for 0x0x55a56a2104f1 (mode=performance simulation) on stream 0
GPGPU-Sim PTX: finding reconvergence points for '_Z11init_kernelIdEvPT_S1_S1_S0_S0_S0_'...
GPGPU-Sim PTX: Finding dominators for '_Z11init_kernelIdEvPT_S1_S1_S0_S0_S0_'...
GPGPU-Sim PTX: Finding immediate dominators for '_Z11init_kernelIdEvPT_S1_S1_S0_S0_S0_'...
GPGPU-Sim PTX: Finding postdominators for '_Z11init_kernelIdEvPT_S1_S1_S0_S0_S0_'...
GPGPU-Sim PTX: Finding immediate postdominators for '_Z11init_kernelIdEvPT_S1_S1_S0_S0_S0_'...
GPGPU-Sim PTX: pre-decoding instructions for '_Z11init_kernelIdEvPT_S1_S1_S0_S0_S0_'...
GPGPU-Sim PTX: reconvergence points for _Z11init_kernelIdEvPT_S1_S1_S0_S0_S0_...
GPGPU-Sim PTX: ... end of reconvergence points for _Z11init_kernelIdEvPT_S1_S1_S0_S0_S0_
GPGPU-Sim PTX: ... done pre-decoding instructions for '_Z11init_kernelIdEvPT_S1_S1_S0_S0_S0_'.
GPGPU-Sim PTX: pushing kernel '_Z11init_kernelIdEvPT_S1_S1_S0_S0_S0_' to stream 0, gridDim= (10,1,1) blockDim = (1024,1,1) 
GPGPU-Sim uArch: Shader 0 bind to kernel 1 '_Z11init_kernelIdEvPT_S1_S1_S0_S0_S0_'
GPGPU-Sim uArch: CTA/core = 2, limited by: threads
GPGPU-Sim uArch: Shader 1 bind to kernel 1 '_Z11init_kernelIdEvPT_S1_S1_S0_S0_S0_'
GPGPU-Sim uArch: Shader 2 bind to kernel 1 '_Z11init_kernelIdEvPT_S1_S1_S0_S0_S0_'
GPGPU-Sim uArch: Shader 3 bind to kernel 1 '_Z11init_kernelIdEvPT_S1_S1_S0_S0_S0_'
GPGPU-Sim uArch: Shader 4 bind to kernel 1 '_Z11init_kernelIdEvPT_S1_S1_S0_S0_S0_'
GPGPU-Sim uArch: Shader 5 bind to kernel 1 '_Z11init_kernelIdEvPT_S1_S1_S0_S0_S0_'
GPGPU-Sim uArch: Shader 6 bind to kernel 1 '_Z11init_kernelIdEvPT_S1_S1_S0_S0_S0_'
GPGPU-Sim uArch: Shader 7 bind to kernel 1 '_Z11init_kernelIdEvPT_S1_S1_S0_S0_S0_'
GPGPU-Sim uArch: Shader 8 bind to kernel 1 '_Z11init_kernelIdEvPT_S1_S1_S0_S0_S0_'
GPGPU-Sim uArch: Shader 9 bind to kernel 1 '_Z11init_kernelIdEvPT_S1_S1_S0_S0_S0_'
Destroy streams for kernel 1: size 0
kernel_name = _Z11init_kernelIdEvPT_S1_S1_S0_S0_S0_ 
kernel_launch_uid = 1 
gpu_sim_cycle = 4837
gpu_sim_insn = 215040
gpu_ipc =      44.4573
gpu_tot_sim_cycle = 4837
gpu_tot_sim_insn = 215040
gpu_tot_ipc =      44.4573
gpu_tot_issued_cta = 10
gpu_occupancy = 33.5162% 
gpu_tot_occupancy = 33.5162% 
max_total_param_size = 0
gpu_stall_dramfull = 7708
gpu_stall_icnt2sh    = 118
partiton_level_parallism =       0.4052
partiton_level_parallism_total  =       0.4052
partiton_level_parallism_util =       3.5125
partiton_level_parallism_util_total  =       3.5125
L2_BW  =      20.8375 GB/Sec
L2_BW_total  =      20.8375 GB/Sec
gpu_total_sim_rate=107520

========= Core cache stats =========
L1I_cache:
	L1I_total_cache_accesses = 3520
	L1I_total_cache_misses = 744
	L1I_total_cache_miss_rate = 0.2114
	L1I_total_cache_pending_hits = 0
	L1I_total_cache_reservation_fails = 0
L1D_cache:
	L1D_cache_core[0]: Access = 0, Miss = 0, Miss_rate = -nan, Pending_hits = 0, Reservation_fails = 0
	L1D_cache_core[1]: Access = 0, Miss = 0, Miss_rate = -nan, Pending_hits = 0, Reservation_fails = 0
	L1D_cache_core[2]: Access = 0, Miss = 0, Miss_rate = -nan, Pending_hits = 0, Reservation_fails = 0
	L1D_cache_core[3]: Access = 0, Miss = 0, Miss_rate = -nan, Pending_hits = 0, Reservation_fails = 0
	L1D_cache_core[4]: Access = 0, Miss = 0, Miss_rate = -nan, Pending_hits = 0, Reservation_fails = 0
	L1D_cache_core[5]: Access = 0, Miss = 0, Miss_rate = -nan, Pending_hits = 0, Reservation_fails = 0
	L1D_cache_core[6]: Access = 0, Miss = 0, Miss_rate = -nan, Pending_hits = 0, Reservation_fails = 0
	L1D_cache_core[7]: Access = 0, Miss = 0, Miss_rate = -nan, Pending_hits = 0, Reservation_fails = 0
	L1D_cache_core[8]: Access = 0, Miss = 0, Miss_rate = -nan, Pending_hits = 0, Reservation_fails = 0
	L1D_cache_core[9]: Access = 0, Miss = 0, Miss_rate = -nan, Pending_hits = 0, Reservation_fails = 0
	L1D_cache_core[10]: Access = 0, Miss = 0, Miss_rate = -nan, Pending_hits = 0, Reservation_fails = 0
	L1D_cache_core[11]: Access = 0, Miss = 0, Miss_rate = -nan, Pending_hits = 0, Reservation_fails = 0
	L1D_cache_core[12]: Access = 0, Miss = 0, Miss_rate = -nan, Pending_hits = 0, Reservation_fails = 0
	L1D_cache_core[13]: Access = 0, Miss = 0, Miss_rate = -nan, Pending_hits = 0, Reservation_fails = 0
	L1D_cache_core[14]: Access = 0, Miss = 0, Miss_rate = -nan, Pending_hits = 0, Reservation_fails = 0
	L1D_cache_core[15]: Access = 0, Miss = 0, Miss_rate = -nan, Pending_hits = 0, Reservation_fails = 0
	L1D_cache_core[16]: Access = 0, Miss = 0, Miss_rate = -nan, Pending_hits = 0, Reservation_fails = 0
	L1D_cache_core[17]: Access = 0, Miss = 0, Miss_rate = -nan, Pending_hits = 0, Reservation_fails = 0
	L1D_cache_core[18]: Access = 0, Miss = 0, Miss_rate = -nan, Pending_hits = 0, Reservation_fails = 0
	L1D_cache_core[19]: Access = 0, Miss = 0, Miss_rate = -nan, Pending_hits = 0, Reservation_fails = 0
	L1D_total_cache_accesses = 0
	L1D_total_cache_misses = 0
	L1D_total_cache_pending_hits = 0
	L1D_total_cache_reservation_fails = 0
	L1D_cache_data_port_util = 0.000
	L1D_cache_fill_port_util = 0.000
L1C_cache:
	L1C_total_cache_accesses = 1920
	L1C_total_cache_misses = 640
	L1C_total_cache_miss_rate = 0.3333
	L1C_total_cache_pending_hits = 0
	L1C_total_cache_reservation_fails = 1910
L1T_cache:
	L1T_total_cache_accesses = 0
	L1T_total_cache_misses = 0
	L1T_total_cache_pending_hits = 0
	L1T_total_cache_reservation_fails = 0

Total_core_cache_stats:
	Total_core_cache_stats_breakdown[GLOBAL_ACC_R][HIT] = 0
	Total_core_cache_stats_breakdown[GLOBAL_ACC_R][HIT_RESERVED] = 0
	Total_core_cache_stats_breakdown[GLOBAL_ACC_R][MISS] = 0
	Total_core_cache_stats_breakdown[GLOBAL_ACC_R][RESERVATION_FAIL] = 0
	Total_core_cache_stats_breakdown[GLOBAL_ACC_R][SECTOR_MISS] = 0
	Total_core_cache_stats_breakdown[GLOBAL_ACC_R][MSHR_HIT] = 0
	Total_core_cache_stats_breakdown[LOCAL_ACC_R][HIT] = 0
	Total_core_cache_stats_breakdown[LOCAL_ACC_R][HIT_RESERVED] = 0
	Total_core_cache_stats_breakdown[LOCAL_ACC_R][MISS] = 0
	Total_core_cache_stats_breakdown[LOCAL_ACC_R][RESERVATION_FAIL] = 0
	Total_core_cache_stats_breakdown[LOCAL_ACC_R][SECTOR_MISS] = 0
	Total_core_cache_stats_breakdown[LOCAL_ACC_R][MSHR_HIT] = 0
	Total_core_cache_stats_breakdown[CONST_ACC_R][HIT] = 1280
	Total_core_cache_stats_breakdown[CONST_ACC_R][HIT_RESERVED] = 0
	Total_core_cache_stats_breakdown[CONST_ACC_R][MISS] = 640
	Total_core_cache_stats_breakdown[CONST_ACC_R][RESERVATION_FAIL] = 1910
	Total_core_cache_stats_breakdown[CONST_ACC_R][SECTOR_MISS] = 0
	Total_core_cache_stats_breakdown[CONST_ACC_R][MSHR_HIT] = 630
	Total_core_cache_stats_breakdown[TEXTURE_ACC_R][HIT] = 0
	Total_core_cache_stats_breakdown[TEXTURE_ACC_R][HIT_RESERVED] = 0
	Total_core_cache_stats_breakdown[TEXTURE_ACC_R][MISS] = 0
	Total_core_cache_stats_breakdown[TEXTURE_ACC_R][RESERVATION_FAIL] = 0
	Total_core_cache_stats_breakdown[TEXTURE_ACC_R][SECTOR_MISS] = 0
	Total_core_cache_stats_breakdown[TEXTURE_ACC_R][MSHR_HIT] = 0
	Total_core_cache_stats_breakdown[GLOBAL_ACC_W][HIT] = 0
	Total_core_cache_stats_breakdown[GLOBAL_ACC_W][HIT_RESERVED] = 0
	Total_core_cache_stats_breakdown[GLOBAL_ACC_W][MISS] = 0
	Total_core_cache_stats_breakdown[GLOBAL_ACC_W][RESERVATION_FAIL] = 0
	Total_core_cache_stats_breakdown[GLOBAL_ACC_W][SECTOR_MISS] = 0
	Total_core_cache_stats_breakdown[GLOBAL_ACC_W][MSHR_HIT] = 0
	Total_core_cache_stats_breakdown[LOCAL_ACC_W][HIT] = 0
	Total_core_cache_stats_breakdown[LOCAL_ACC_W][HIT_RESERVED] = 0
	Total_core_cache_stats_breakdown[LOCAL_ACC_W][MISS] = 0
	Total_core_cache_stats_breakdown[LOCAL_ACC_W][RESERVATION_FAIL] = 0
	Total_core_cache_stats_breakdown[LOCAL_ACC_W][SECTOR_MISS] = 0
	Total_core_cache_stats_breakdown[LOCAL_ACC_W][MSHR_HIT] = 0
	Total_core_cache_stats_breakdown[L1_WRBK_ACC][HIT] = 0
	Total_core_cache_stats_breakdown[L1_WRBK_ACC][HIT_RESERVED] = 0
	Total_core_cache_stats_breakdown[L1_WRBK_ACC][MISS] = 0
	Total_core_cache_stats_breakdown[L1_WRBK_ACC][RESERVATION_FAIL] = 0
	Total_core_cache_stats_breakdown[L1_WRBK_ACC][SECTOR_MISS] = 0
	Total_core_cache_stats_breakdown[L1_WRBK_ACC][MSHR_HIT] = 0
	Total_core_cache_stats_breakdown[L2_WRBK_ACC][HIT] = 0
	Total_core_cache_stats_breakdown[L2_WRBK_ACC][HIT_RESERVED] = 0
	Total_core_cache_stats_breakdown[L2_WRBK_ACC][MISS] = 0
	Total_core_cache_stats_breakdown[L2_WRBK_ACC][RESERVATION_FAIL] = 0
	Total_core_cache_stats_breakdown[L2_WRBK_ACC][SECTOR_MISS] = 0
	Total_core_cache_stats_breakdown[L2_WRBK_ACC][MSHR_HIT] = 0
	Total_core_cache_stats_breakdown[INST_ACC_R][HIT] = 2776
	Total_core_cache_stats_breakdown[INST_ACC_R][HIT_RESERVED] = 0
	Total_core_cache_stats_breakdown[INST_ACC_R][MISS] = 744
	Total_core_cache_stats_breakdown[INST_ACC_R][RESERVATION_FAIL] = 0
	Total_core_cache_stats_breakdown[INST_ACC_R][SECTOR_MISS] = 0
	Total_core_cache_stats_breakdown[INST_ACC_R][MSHR_HIT] = 714
	Total_core_cache_stats_breakdown[L1_WR_ALLOC_R][HIT] = 0
	Total_core_cache_stats_breakdown[L1_WR_ALLOC_R][HIT_RESERVED] = 0
	Total_core_cache_stats_breakdown[L1_WR_ALLOC_R][MISS] = 0
	Total_core_cache_stats_breakdown[L1_WR_ALLOC_R][RESERVATION_FAIL] = 0
	Total_core_cache_stats_breakdown[L1_WR_ALLOC_R][SECTOR_MISS] = 0
	Total_core_cache_stats_breakdown[L1_WR_ALLOC_R][MSHR_HIT] = 0
	Total_core_cache_stats_breakdown[L2_WR_ALLOC_R][HIT] = 0
	Total_core_cache_stats_breakdown[L2_WR_ALLOC_R][HIT_RESERVED] = 0
	Total_core_cache_stats_breakdown[L2_WR_ALLOC_R][MISS] = 0
	Total_core_cache_stats_breakdown[L2_WR_ALLOC_R][RESERVATION_FAIL] = 0
	Total_core_cache_stats_breakdown[L2_WR_ALLOC_R][SECTOR_MISS] = 0
	Total_core_cache_stats_breakdown[L2_WR_ALLOC_R][MSHR_HIT] = 0
	Total_core_cache_stats_breakdown[CONST_ACC_R][TOTAL_ACCESS] = 1920
	Total_core_cache_stats_breakdown[INST_ACC_R][TOTAL_ACCESS] = 3520

Total_core_cache_fail_stats:
	Total_core_cache_fail_stats_breakdown[CONST_ACC_R][MSHR_MERGE_ENRTY_FAIL] = 1910
ctas_completed 10, Shader 0 warp_id issue ditsribution:
warp_id:
0, 1, 2, 3, 4, 5, 6, 7, 8, 9, 10, 11, 12, 13, 14, 15, 16, 17, 18, 19, 20, 21, 22, 23, 24, 25, 26, 27, 28, 29, 30, 31, 
distro:
21, 21, 21, 21, 21, 21, 21, 21, 21, 21, 21, 21, 21, 21, 21, 21, 21, 21, 21, 21, 21, 21, 21, 21, 21, 21, 21, 21, 21, 21, 21, 21, 
gpgpu_n_tot_thrd_icount = 215040
gpgpu_n_tot_w_icount = 6720
gpgpu_n_stall_shd_mem = 26922
gpgpu_n_mem_read_local = 0
gpgpu_n_mem_write_local = 0
gpgpu_n_mem_read_global = 0
gpgpu_n_mem_write_global = 1920
gpgpu_n_mem_texture = 0
gpgpu_n_mem_const = 10
gpgpu_n_load_insn  = 0
gpgpu_n_store_insn = 30720
gpgpu_n_shmem_insn = 0
gpgpu_n_sstarr_insn = 0
gpgpu_n_tex_insn = 0
gpgpu_n_const_mem_insn = 0
gpgpu_n_param_mem_insn = 61440
gpgpu_n_shmem_bkconflict = 0
gpgpu_n_cache_bkconflict = 0
gpgpu_n_intrawarp_mshr_merge = 0
gpgpu_n_cmem_portconflict = 1910
gpgpu_stall_shd_mem[c_mem][resource_stall] = 1910
gpgpu_stall_shd_mem[s_mem][bk_conf] = 0
gpgpu_stall_shd_mem[gl_mem][resource_stall] = 0
gpgpu_stall_shd_mem[gl_mem][coal_stall] = 960
gpgpu_stall_shd_mem[gl_mem][data_port_stall] = 0
gpu_reg_bank_conflict_stalls = 0
Warp Occupancy Distribution:
Stall:41169	W0_Idle:40380	W0_Scoreboard:2763	W1:0	W2:0	W3:0	W4:0	W5:0	W6:0	W7:0	W8:0	W9:0	W10:0	W11:0	W12:0	W13:0	W14:0	W15:0	W16:0	W17:0	W18:0	W19:0	W20:0	W21:0	W22:0	W23:0	W24:0	W25:0	W26:0	W27:0	W28:0	W29:0	W30:0	W31:0	W32:6720
single_issue_nums: WS0:3360	WS1:3360	
dual_issue_nums: WS0:0	WS1:0	
traffic_breakdown_coretomem[CONST_ACC_R] = 80 {8:10,}
traffic_breakdown_coretomem[GLOBAL_ACC_W] = 261120 {136:1920,}
traffic_breakdown_coretomem[INST_ACC_R] = 240 {8:30,}
traffic_breakdown_memtocore[CONST_ACC_R] = 720 {72:10,}
traffic_breakdown_memtocore[GLOBAL_ACC_W] = 15360 {8:1920,}
traffic_breakdown_memtocore[INST_ACC_R] = 4080 {136:30,}
maxmflatency = 1732 
max_icnt2mem_latency = 494 
maxmrqlatency = 1056 
max_icnt2sh_latency = 24 
averagemflatency = 708 
avg_icnt2mem_latency = 56 
avg_mrq_latency = 267 
avg_icnt2sh_latency = 8 
mrq_lat_table:369 	6 	70 	104 	90 	203 	387 	818 	1242 	553 	2 	0 	0 	0 	0 	0 	0 	0 	0 	0 	0 	0 	0 	0 	0 	0 	0 	0 	0 	0 	0 	0 	
dq_lat_table:0 	0 	0 	0 	0 	0 	0 	0 	0 	0 	0 	0 	0 	0 	0 	0 	0 	0 	0 	0 	0 	0 	0 	0 	0 	0 	0 	0 	0 	0 	0 	0 	
mf_lat_table:0 	0 	0 	0 	0 	0 	0 	5 	637 	906 	382 	0 	0 	0 	0 	0 	0 	0 	0 	0 	0 	0 	0 	0 	0 	0 	0 	0 	0 	0 	0 	0 	
icnt2mem_lat_table:0 	0 	0 	29 	1000 	682 	86 	63 	100 	0 	0 	0 	0 	0 	0 	0 	0 	0 	0 	0 	0 	0 	0 	0 	
icnt2sh_lat_table:0 	0 	0 	1922 	8 	0 	0 	0 	0 	0 	0 	0 	0 	0 	0 	0 	0 	0 	0 	0 	0 	0 	0 	0 	
mf_lat_pw_table:0 	0 	0 	0 	0 	0 	0 	0 	2 	5 	1 	0 	0 	0 	0 	0 	0 	0 	0 	0 	0 	0 	0 	0 	0 	0 	0 	0 	0 	0 	0 	0 	
maximum concurrent accesses to same row:
dram[0]:         1         0         0         0         0         0         0         0         0         0         0         0         0         0         0         0 
dram[1]:         0         1         0         0         0         0         0         0         0         0         0         0         0         0         0         0 
dram[2]:         1        14         0         0         0         0         0         0         0         0         0         0         0         0         0         0 
dram[3]:         0         0         0         0         0         0         0         0         0         0         0         0         0         0         0         0 
dram[4]:         0         0         0         0         0         0         0         0         0         0         0         0         0         0         0         0 
dram[5]:         0         0         0         0         0         0         0         0         0         0         0         0         0         0         0         0 
dram[6]:         0         0         0         0         0         0         0         0         0         0         0         0         0         0         0         0 
dram[7]:         0         0         0         0         0         0         0         0         0         0         0         0         0         0         0         0 
maximum service time to same row:
dram[0]:       940       934       967       962      1015      1010      1206      1201      1224      1219      1248      1242      1299      1289      2081      2075 
dram[1]:       952       714       979       974      1003       998      1145      1140      1152      1147      1314      1304      1188      1183      1236      1226 
dram[2]:       546      1226       992       987      1028      1023      2074      2068      2081      2075      2032      2027      2466      2460      2484      2478 
dram[3]:       976       970      1003       998      1040      1034      1158      1152      1163      1158      1289      1284      1314      1307      1332      1327 
dram[4]:      1003       996      1015      1010      1140      1134      2135      2129      2484      2478      2147      2142      2513      2507      2531      2527 
dram[5]:      1010      1003      1048      1041      1066      1060      1260      1255      1266      1260      1598      1577      1302      1296      1337      1316 
dram[6]:      1014      1008      1059      1055      1127      1122      1343      1338      2531      2527      2088      2081      2556      2550      2574      2568 
dram[7]:       988       983      1046      1039      1080      1075      1284      1278      1433      1428      1296      1289      1458      1453      1476      1471 
average row accesses per activate:
dram[0]: 33.000000 32.000000 32.000000 32.000000 32.000000 32.000000 32.000000 32.000000 32.000000 32.000000 32.000000 32.000000 32.000000 32.000000 16.000000 16.000000 
dram[1]: 32.000000 16.500000 32.000000 32.000000 32.000000 32.000000 32.000000 32.000000 32.000000 32.000000 32.000000 32.000000 32.000000 32.000000 16.000000 16.000000 
dram[2]: 16.500000 11.000000 32.000000 32.000000 32.000000 32.000000 32.000000 32.000000 32.000000 32.000000 32.000000 32.000000 32.000000 32.000000 16.000000 16.000000 
dram[3]: 32.000000 32.000000 32.000000 32.000000 32.000000 32.000000 32.000000 32.000000 32.000000 32.000000 32.000000 32.000000 32.000000 32.000000 16.000000 16.000000 
dram[4]: 32.000000 32.000000 32.000000 32.000000 32.000000 32.000000 32.000000 32.000000 32.000000 32.000000 32.000000 32.000000 32.000000 32.000000 16.000000 16.000000 
dram[5]: 32.000000 32.000000 32.000000 32.000000 32.000000 32.000000 32.000000 32.000000 32.000000 32.000000 32.000000 32.000000 32.000000 32.000000 16.000000 16.000000 
dram[6]: 32.000000 32.000000 32.000000 32.000000 32.000000 32.000000 32.000000 32.000000 32.000000 32.000000 32.000000 32.000000 32.000000 32.000000 16.000000 16.000000 
dram[7]: 32.000000 32.000000 32.000000 32.000000 32.000000 32.000000 32.000000 32.000000 32.000000 32.000000 32.000000 32.000000 32.000000 32.000000 16.000000 16.000000 
average row locality = 3844/132 = 29.121212
number of total memory accesses made:
dram[0]:         0         0         0         0         0         0         0         0         0         0         0         0         0         0         0         0 
dram[1]:         0         0         0         0         0         0         0         0         0         0         0         0         0         0         0         0 
dram[2]:         0         0         0         0         0         0         0         0         0         0         0         0         0         0         0         0 
dram[3]:         0         0         0         0         0         0         0         0         0         0         0         0         0         0         0         0 
dram[4]:         0         0         0         0         0         0         0         0         0         0         0         0         0         0         0         0 
dram[5]:         0         0         0         0         0         0         0         0         0         0         0         0         0         0         0         0 
dram[6]:         0         0         0         0         0         0         0         0         0         0         0         0         0         0         0         0 
dram[7]:         0         0         0         0         0         0         0         0         0         0         0         0         0         0         0         0 
total accesses: 0
min_bank_accesses = 0!
min_chip_accesses = 0!
number of total read accesses:
dram[0]:        68        64        64        64        64        64        64        64        64        64        64        64        64        64        32        32 
dram[1]:        64        68        64        64        64        64        64        64        64        64        64        64        64        64        32        32 
dram[2]:        68        68        64        64        64        64        64        64        64        64        64        64        64        64        32        32 
dram[3]:        64        64        64        64        64        64        64        64        64        64        64        64        64        64        32        32 
dram[4]:        64        64        64        64        64        64        64        64        64        64        64        64        64        64        32        32 
dram[5]:        64        64        64        64        64        64        64        64        64        64        64        64        64        64        32        32 
dram[6]:        64        64        64        64        64        64        64        64        64        64        64        64        64        64        32        32 
dram[7]:        64        64        64        64        64        64        64        64        64        64        64        64        64        64        32        32 
total dram reads = 7696
bank skew: 68/32 = 2.12
chip skew: 968/960 = 1.01
number of total write accesses:
dram[0]:        64        64        64        64        64        64        64        64        64        64        64        64        64        64        32        32 
dram[1]:        64        64        64        64        64        64        64        64        64        64        64        64        64        64        32        32 
dram[2]:        64        64        64        64        64        64        64        64        64        64        64        64        64        64        32        32 
dram[3]:        64        64        64        64        64        64        64        64        64        64        64        64        64        64        32        32 
dram[4]:        64        64        64        64        64        64        64        64        64        64        64        64        64        64        32        32 
dram[5]:        64        64        64        64        64        64        64        64        64        64        64        64        64        64        32        32 
dram[6]:        64        64        64        64        64        64        64        64        64        64        64        64        64        64        32        32 
dram[7]:        64        64        64        64        64        64        64        64        64        64        64        64        64        64        32        32 
total dram writes = 7680
bank skew: 64/32 = 2.00
chip skew: 960/960 = 1.00
average mf latency per bank:
dram[0]:         85        63        70        71        60        62        64        67        84        87        72        76        87        89        57        59
dram[1]:         87        85       105       106        93        94       105       106       131       132       116       118       107       113        81        83
dram[2]:         66        65        75        77        80        82        82        86        96        98        86        89       126       128        79        80
dram[3]:         73        79        86        90        89        90        96        97        98        99        94        95       120       123        79        79
dram[4]:         63        67        74        79        72        74        90        92       112       114        87        93       130       132        71        73
dram[5]:         84        85        88        97        87        95       124       106       120       122       145       151       131       135        92        93
dram[6]:         66        67        87        89        77        80        75        76       113       115        78        79       132       132        72        73
dram[7]:         52        55        69        72        60        61        67        70       103       106        58        60       104       106        59        57
maximum mf latency per bank:
dram[0]:        909       920      1027      1038       876       905       844       855      1214      1225      1008      1071      1319      1330       800       825
dram[1]:       1102      1064      1358      1370      1274      1309      1314      1325      1692      1705      1353      1406      1239      1408       940       873
dram[2]:       1079      1089      1178      1219      1293      1304      1229      1240      1489      1504      1238      1251      1642      1659      1141      1151
dram[3]:        888      1071      1081      1242      1056      1085      1130      1165      1246      1257      1154      1166      1353      1382       893       850
dram[4]:       1005      1053      1252      1264      1058      1071      1245      1256      1524      1535      1107      1265      1683      1708       846       869
dram[5]:       1286      1236      1315      1350      1142      1234      1607      1452      1677      1706      1642      1716      1625      1732      1165      1176
dram[6]:        945       896      1385      1420      1045      1057      1029      1046      1599      1610      1031      1066      1714      1727       917       940
dram[7]:        786       797       930       965       869       830       822       832      1317      1329       743       760      1153      1164       642       589
Memory Partition 0: 
Cache L2_bank_000:
MSHR contents

Cache L2_bank_001:
MSHR contents

In Dram Latency Queue (total = 0): 
DRAM[0]: 16 bks, busW=4 BL=8 CL=12, tRRD=6 tCCD=2, tRCD=12 tRAS=28 tRP=12 tRC=40
n_cmd=7524 n_nop=5583 n_act=17 n_pre=1 n_ref_event=0 n_req=481 n_rd=4 n_rd_L2_A=960 n_write=960 n_wr_bk=0 bw_util=0.5114
n_activity=4426 dram_eff=0.8694
bk0: 68a 4531i bk1: 64a 4670i bk2: 64a 4472i bk3: 64a 4439i bk4: 64a 4497i bk5: 64a 4431i bk6: 64a 4352i bk7: 64a 4260i bk8: 64a 4147i bk9: 64a 4115i bk10: 64a 4337i bk11: 64a 4272i bk12: 64a 4583i bk13: 64a 4525i bk14: 32a 5967i bk15: 32a 5895i 

------------------------------------------------------------------------

Row_Buffer_Locality = 0.966736
Row_Buffer_Locality_read = 1.000000
Row_Buffer_Locality_write = 0.933333
Bank_Level_Parallism = 10.897123
Bank_Level_Parallism_Col = 10.894082
Bank_Level_Parallism_Ready = 6.203012
write_to_read_ratio_blp_rw_average = 0.468280
GrpLevelPara = 1.000000 

BW Util details:
bwutil = 0.511430 
total_CMD = 7524 
util_bw = 3848 
Wasted_Col = 504 
Wasted_Row = 0 
Idle = 3172 

BW Util Bottlenecks: 
RCDc_limit = 12 
RCDWRc_limit = 21 
WTRc_limit = 2177 
RTWc_limit = 2012 
CCDLc_limit = 0 
rwq = 0 
CCDLc_limit_alone = 0 
WTRc_limit_alone = 2177 
RTWc_limit_alone = 2012 

Commands details: 
total_CMD = 7524 
n_nop = 5583 
Read = 4 
Write = 960 
L2_Alloc = 960 
L2_WB = 0 
n_act = 17 
n_pre = 1 
n_ref = 0 
n_req = 481 
total_req = 1924 

Dual Bus Interface Util: 
issued_total_row = 18 
issued_total_col = 1924 
Row_Bus_Util =  0.002392 
CoL_Bus_Util = 0.255715 
Either_Row_CoL_Bus_Util = 0.257974 
Issued_on_Two_Bus_Simul_Util = 0.000133 
issued_two_Eff = 0.000515 
queue_avg = 21.644604 


dram_util_bins: 0 0 0 0 0 0 0 0 0 0
dram_eff_bins: 0 0 0 0 0 0 0 0 0 0
mrqq: max=64 avg=21.6446
Memory Partition 1: 
Cache L2_bank_002:
MSHR contents

Cache L2_bank_003:
MSHR contents

In Dram Latency Queue (total = 0): 
DRAM[1]: 16 bks, busW=4 BL=8 CL=12, tRRD=6 tCCD=2, tRCD=12 tRAS=28 tRP=12 tRC=40
n_cmd=7524 n_nop=5582 n_act=17 n_pre=1 n_ref_event=0 n_req=481 n_rd=4 n_rd_L2_A=960 n_write=960 n_wr_bk=0 bw_util=0.5114
n_activity=4276 dram_eff=0.8999
bk0: 64a 4116i bk1: 68a 4072i bk2: 64a 3787i bk3: 64a 3775i bk4: 64a 3810i bk5: 64a 3795i bk6: 64a 3790i bk7: 64a 3738i bk8: 64a 3715i bk9: 64a 3699i bk10: 64a 3909i bk11: 64a 3887i bk12: 64a 3806i bk13: 64a 3789i bk14: 32a 5428i bk15: 32a 5505i 

------------------------------------------------------------------------

Row_Buffer_Locality = 0.964657
Row_Buffer_Locality_read = 0.995851
Row_Buffer_Locality_write = 0.933333
Bank_Level_Parallism = 13.249058
Bank_Level_Parallism_Col = 13.271912
Bank_Level_Parallism_Ready = 7.275468
write_to_read_ratio_blp_rw_average = 0.488244
GrpLevelPara = 1.000000 

BW Util details:
bwutil = 0.511430 
total_CMD = 7524 
util_bw = 3848 
Wasted_Col = 389 
Wasted_Row = 9 
Idle = 3278 

BW Util Bottlenecks: 
RCDc_limit = 12 
RCDWRc_limit = 10 
WTRc_limit = 2160 
RTWc_limit = 2230 
CCDLc_limit = 0 
rwq = 0 
CCDLc_limit_alone = 0 
WTRc_limit_alone = 2160 
RTWc_limit_alone = 2230 

Commands details: 
total_CMD = 7524 
n_nop = 5582 
Read = 4 
Write = 960 
L2_Alloc = 960 
L2_WB = 0 
n_act = 17 
n_pre = 1 
n_ref = 0 
n_req = 481 
total_req = 1924 

Dual Bus Interface Util: 
issued_total_row = 18 
issued_total_col = 1924 
Row_Bus_Util =  0.002392 
CoL_Bus_Util = 0.255715 
Either_Row_CoL_Bus_Util = 0.258107 
Issued_on_Two_Bus_Simul_Util = 0.000000 
issued_two_Eff = 0.000000 
queue_avg = 30.850212 


dram_util_bins: 0 0 0 0 0 0 0 0 0 0
dram_eff_bins: 0 0 0 0 0 0 0 0 0 0
mrqq: max=64 avg=30.8502
Memory Partition 2: 
Cache L2_bank_004:
MSHR contents

Cache L2_bank_005:
MSHR contents

In Dram Latency Queue (total = 0): 
DRAM[2]: 16 bks, busW=4 BL=8 CL=12, tRRD=6 tCCD=2, tRCD=12 tRAS=28 tRP=12 tRC=40
n_cmd=7524 n_nop=5575 n_act=19 n_pre=3 n_ref_event=0 n_req=482 n_rd=8 n_rd_L2_A=960 n_write=960 n_wr_bk=0 bw_util=0.5125
n_activity=4509 dram_eff=0.8552
bk0: 68a 4771i bk1: 68a 4713i bk2: 64a 4520i bk3: 64a 4488i bk4: 64a 4273i bk5: 64a 4226i bk6: 64a 4319i bk7: 64a 4257i bk8: 64a 4376i bk9: 64a 4347i bk10: 64a 4234i bk11: 64a 4185i bk12: 64a 4166i bk13: 64a 4150i bk14: 32a 5839i bk15: 32a 5791i 

------------------------------------------------------------------------

Row_Buffer_Locality = 0.960581
Row_Buffer_Locality_read = 0.991736
Row_Buffer_Locality_write = 0.929167
Bank_Level_Parallism = 10.871193
Bank_Level_Parallism_Col = 10.865884
Bank_Level_Parallism_Ready = 6.223316
write_to_read_ratio_blp_rw_average = 0.476935
GrpLevelPara = 1.000000 

BW Util details:
bwutil = 0.512493 
total_CMD = 7524 
util_bw = 3856 
Wasted_Col = 583 
Wasted_Row = 0 
Idle = 3085 

BW Util Bottlenecks: 
RCDc_limit = 19 
RCDWRc_limit = 35 
WTRc_limit = 2242 
RTWc_limit = 2149 
CCDLc_limit = 0 
rwq = 0 
CCDLc_limit_alone = 0 
WTRc_limit_alone = 2242 
RTWc_limit_alone = 2149 

Commands details: 
total_CMD = 7524 
n_nop = 5575 
Read = 8 
Write = 960 
L2_Alloc = 960 
L2_WB = 0 
n_act = 19 
n_pre = 3 
n_ref = 0 
n_req = 482 
total_req = 1928 

Dual Bus Interface Util: 
issued_total_row = 22 
issued_total_col = 1928 
Row_Bus_Util =  0.002924 
CoL_Bus_Util = 0.256247 
Either_Row_CoL_Bus_Util = 0.259038 
Issued_on_Two_Bus_Simul_Util = 0.000133 
issued_two_Eff = 0.000513 
queue_avg = 23.826820 


dram_util_bins: 0 0 0 0 0 0 0 0 0 0
dram_eff_bins: 0 0 0 0 0 0 0 0 0 0
mrqq: max=64 avg=23.8268
Memory Partition 3: 
Cache L2_bank_006:
MSHR contents

Cache L2_bank_007:
MSHR contents

In Dram Latency Queue (total = 0): 
DRAM[3]: 16 bks, busW=4 BL=8 CL=12, tRRD=6 tCCD=2, tRCD=12 tRAS=28 tRP=12 tRC=40
n_cmd=7524 n_nop=5588 n_act=16 n_pre=0 n_ref_event=0 n_req=480 n_rd=0 n_rd_L2_A=960 n_write=960 n_wr_bk=0 bw_util=0.5104
n_activity=4247 dram_eff=0.9042
bk0: 64a 4352i bk1: 64a 4284i bk2: 64a 3989i bk3: 64a 3975i bk4: 64a 3756i bk5: 64a 3739i bk6: 64a 3898i bk7: 64a 3864i bk8: 64a 3834i bk9: 64a 3818i bk10: 64a 3910i bk11: 64a 3876i bk12: 64a 3859i bk13: 64a 3843i bk14: 32a 5349i bk15: 32a 5421i 

------------------------------------------------------------------------

Row_Buffer_Locality = 0.966667
Row_Buffer_Locality_read = 1.000000
Row_Buffer_Locality_write = 0.933333
Bank_Level_Parallism = 13.002360
Bank_Level_Parallism_Col = 12.998347
Bank_Level_Parallism_Ready = 7.153045
write_to_read_ratio_blp_rw_average = 0.494535
GrpLevelPara = 1.000000 

BW Util details:
bwutil = 0.510367 
total_CMD = 7524 
util_bw = 3840 
Wasted_Col = 397 
Wasted_Row = 0 
Idle = 3287 

BW Util Bottlenecks: 
RCDc_limit = 0 
RCDWRc_limit = 19 
WTRc_limit = 2160 
RTWc_limit = 2265 
CCDLc_limit = 0 
rwq = 0 
CCDLc_limit_alone = 0 
WTRc_limit_alone = 2160 
RTWc_limit_alone = 2265 

Commands details: 
total_CMD = 7524 
n_nop = 5588 
Read = 0 
Write = 960 
L2_Alloc = 960 
L2_WB = 0 
n_act = 16 
n_pre = 0 
n_ref = 0 
n_req = 480 
total_req = 1920 

Dual Bus Interface Util: 
issued_total_row = 16 
issued_total_col = 1920 
Row_Bus_Util =  0.002127 
CoL_Bus_Util = 0.255183 
Either_Row_CoL_Bus_Util = 0.257310 
Issued_on_Two_Bus_Simul_Util = 0.000000 
issued_two_Eff = 0.000000 
queue_avg = 30.258638 


dram_util_bins: 0 0 0 0 0 0 0 0 0 0
dram_eff_bins: 0 0 0 0 0 0 0 0 0 0
mrqq: max=64 avg=30.2586
Memory Partition 4: 
Cache L2_bank_008:
MSHR contents

Cache L2_bank_009:
MSHR contents

In Dram Latency Queue (total = 0): 
DRAM[4]: 16 bks, busW=4 BL=8 CL=12, tRRD=6 tCCD=2, tRCD=12 tRAS=28 tRP=12 tRC=40
n_cmd=7524 n_nop=5589 n_act=16 n_pre=0 n_ref_event=0 n_req=480 n_rd=0 n_rd_L2_A=960 n_write=960 n_wr_bk=0 bw_util=0.5104
n_activity=4424 dram_eff=0.868
bk0: 64a 5216i bk1: 64a 5113i bk2: 64a 4476i bk3: 64a 4428i bk4: 64a 4345i bk5: 64a 4287i bk6: 64a 4256i bk7: 64a 4207i bk8: 64a 4117i bk9: 64a 4103i bk10: 64a 4274i bk11: 64a 4225i bk12: 64a 4110i bk13: 64a 4092i bk14: 32a 5663i bk15: 32a 5610i 

------------------------------------------------------------------------

Row_Buffer_Locality = 0.966667
Row_Buffer_Locality_read = 1.000000
Row_Buffer_Locality_write = 0.933333
Bank_Level_Parallism = 11.088344
Bank_Level_Parallism_Col = 11.089072
Bank_Level_Parallism_Ready = 6.284823
write_to_read_ratio_blp_rw_average = 0.474252
GrpLevelPara = 1.000000 

BW Util details:
bwutil = 0.510367 
total_CMD = 7524 
util_bw = 3840 
Wasted_Col = 524 
Wasted_Row = 0 
Idle = 3160 

BW Util Bottlenecks: 
RCDc_limit = 0 
RCDWRc_limit = 30 
WTRc_limit = 2188 
RTWc_limit = 2045 
CCDLc_limit = 0 
rwq = 0 
CCDLc_limit_alone = 0 
WTRc_limit_alone = 2188 
RTWc_limit_alone = 2045 

Commands details: 
total_CMD = 7524 
n_nop = 5589 
Read = 0 
Write = 960 
L2_Alloc = 960 
L2_WB = 0 
n_act = 16 
n_pre = 0 
n_ref = 0 
n_req = 480 
total_req = 1920 

Dual Bus Interface Util: 
issued_total_row = 16 
issued_total_col = 1920 
Row_Bus_Util =  0.002127 
CoL_Bus_Util = 0.255183 
Either_Row_CoL_Bus_Util = 0.257177 
Issued_on_Two_Bus_Simul_Util = 0.000133 
issued_two_Eff = 0.000517 
queue_avg = 25.108055 


dram_util_bins: 0 0 0 0 0 0 0 0 0 0
dram_eff_bins: 0 0 0 0 0 0 0 0 0 0
mrqq: max=64 avg=25.1081
Memory Partition 5: 
Cache L2_bank_010:
MSHR contents

Cache L2_bank_011:
MSHR contents

In Dram Latency Queue (total = 0): 
DRAM[5]: 16 bks, busW=4 BL=8 CL=12, tRRD=6 tCCD=2, tRCD=12 tRAS=28 tRP=12 tRC=40
n_cmd=7524 n_nop=5589 n_act=16 n_pre=0 n_ref_event=0 n_req=480 n_rd=0 n_rd_L2_A=960 n_write=960 n_wr_bk=0 bw_util=0.5104
n_activity=4295 dram_eff=0.8941
bk0: 64a 4306i bk1: 64a 4320i bk2: 64a 4277i bk3: 64a 4244i bk4: 64a 3921i bk5: 64a 4058i bk6: 64a 3961i bk7: 64a 4013i bk8: 64a 3879i bk9: 64a 3928i bk10: 64a 4196i bk11: 64a 4175i bk12: 64a 3846i bk13: 64a 3830i bk14: 32a 5566i bk15: 32a 5472i 

------------------------------------------------------------------------

Row_Buffer_Locality = 0.966667
Row_Buffer_Locality_read = 1.000000
Row_Buffer_Locality_write = 0.933333
Bank_Level_Parallism = 12.368741
Bank_Level_Parallism_Col = 12.367977
Bank_Level_Parallism_Ready = 6.829688
write_to_read_ratio_blp_rw_average = 0.492767
GrpLevelPara = 1.000000 

BW Util details:
bwutil = 0.510367 
total_CMD = 7524 
util_bw = 3840 
Wasted_Col = 436 
Wasted_Row = 0 
Idle = 3248 

BW Util Bottlenecks: 
RCDc_limit = 0 
RCDWRc_limit = 30 
WTRc_limit = 2161 
RTWc_limit = 2255 
CCDLc_limit = 0 
rwq = 0 
CCDLc_limit_alone = 0 
WTRc_limit_alone = 2161 
RTWc_limit_alone = 2255 

Commands details: 
total_CMD = 7524 
n_nop = 5589 
Read = 0 
Write = 960 
L2_Alloc = 960 
L2_WB = 0 
n_act = 16 
n_pre = 0 
n_ref = 0 
n_req = 480 
total_req = 1920 

Dual Bus Interface Util: 
issued_total_row = 16 
issued_total_col = 1920 
Row_Bus_Util =  0.002127 
CoL_Bus_Util = 0.255183 
Either_Row_CoL_Bus_Util = 0.257177 
Issued_on_Two_Bus_Simul_Util = 0.000133 
issued_two_Eff = 0.000517 
queue_avg = 30.655767 


dram_util_bins: 0 0 0 0 0 0 0 0 0 0
dram_eff_bins: 0 0 0 0 0 0 0 0 0 0
mrqq: max=64 avg=30.6558
Memory Partition 6: 
Cache L2_bank_012:
MSHR contents
MSHR: tag=0xc0031e00, atomic=0 1 entries : 0x7fa2b57829a0 :  mf: uid= 11190, sid04:w30, part=6, addr=0xc0031e00, load , size=128, unknown  status = IN_PARTITION_DRAM (4836), 

Cache L2_bank_013:
MSHR contents
MSHR: tag=0xc0031e80, atomic=0 1 entries : 0x7fa2b56eb790 :  mf: uid= 11189, sid04:w30, part=6, addr=0xc0031e80, load , size=128, unknown  status = IN_PARTITION_DRAM (4835), 

In Dram Latency Queue (total = 0): 
DRAM[6]: 16 bks, busW=4 BL=8 CL=12, tRRD=6 tCCD=2, tRCD=12 tRAS=28 tRP=12 tRC=40
n_cmd=7524 n_nop=5592 n_act=16 n_pre=0 n_ref_event=0 n_req=480 n_rd=0 n_rd_L2_A=957 n_write=960 n_wr_bk=0 bw_util=0.5096
n_activity=4397 dram_eff=0.872
bk0: 64a 4518i bk1: 64a 4518i bk2: 64a 4302i bk3: 64a 4256i bk4: 64a 4232i bk5: 64a 4169i bk6: 64a 4136i bk7: 64a 4070i bk8: 64a 4012i bk9: 64a 4030i bk10: 64a 4478i bk11: 64a 4374i bk12: 61a 4003i bk13: 64a 3998i bk14: 32a 5810i bk15: 32a 5724i 

------------------------------------------------------------------------

Row_Buffer_Locality = 0.966667
Row_Buffer_Locality_read = 1.000000
Row_Buffer_Locality_write = 0.933333
Bank_Level_Parallism = 11.564487
Bank_Level_Parallism_Col = 11.568103
Bank_Level_Parallism_Ready = 6.559084
write_to_read_ratio_blp_rw_average = 0.471921
GrpLevelPara = 1.000000 

BW Util details:
bwutil = 0.509569 
total_CMD = 7524 
util_bw = 3833 
Wasted_Col = 514 
Wasted_Row = 0 
Idle = 3177 

BW Util Bottlenecks: 
RCDc_limit = 0 
RCDWRc_limit = 49 
WTRc_limit = 2207 
RTWc_limit = 1986 
CCDLc_limit = 0 
rwq = 0 
CCDLc_limit_alone = 0 
WTRc_limit_alone = 2207 
RTWc_limit_alone = 1986 

Commands details: 
total_CMD = 7524 
n_nop = 5592 
Read = 0 
Write = 960 
L2_Alloc = 957 
L2_WB = 0 
n_act = 16 
n_pre = 0 
n_ref = 0 
n_req = 480 
total_req = 1917 

Dual Bus Interface Util: 
issued_total_row = 16 
issued_total_col = 1917 
Row_Bus_Util =  0.002127 
CoL_Bus_Util = 0.254785 
Either_Row_CoL_Bus_Util = 0.256778 
Issued_on_Two_Bus_Simul_Util = 0.000133 
issued_two_Eff = 0.000518 
queue_avg = 24.533493 


dram_util_bins: 0 0 0 0 0 0 0 0 0 0
dram_eff_bins: 0 0 0 0 0 0 0 0 0 0
mrqq: max=64 avg=24.5335
Memory Partition 7: 
Cache L2_bank_014:
MSHR contents

Cache L2_bank_015:
MSHR contents

In Dram Latency Queue (total = 0): 
DRAM[7]: 16 bks, busW=4 BL=8 CL=12, tRRD=6 tCCD=2, tRCD=12 tRAS=28 tRP=12 tRC=40
n_cmd=7524 n_nop=5591 n_act=16 n_pre=0 n_ref_event=0 n_req=480 n_rd=0 n_rd_L2_A=960 n_write=960 n_wr_bk=0 bw_util=0.5104
n_activity=4323 dram_eff=0.8883
bk0: 64a 4619i bk1: 64a 4521i bk2: 64a 4133i bk3: 64a 4099i bk4: 64a 4166i bk5: 64a 4058i bk6: 64a 3989i bk7: 64a 3939i bk8: 64a 3942i bk9: 64a 3927i bk10: 64a 4348i bk11: 64a 4295i bk12: 64a 3913i bk13: 64a 3896i bk14: 32a 5435i bk15: 32a 5645i 

------------------------------------------------------------------------

Row_Buffer_Locality = 0.966667
Row_Buffer_Locality_read = 1.000000
Row_Buffer_Locality_write = 0.933333
Bank_Level_Parallism = 12.075349
Bank_Level_Parallism_Col = 12.073505
Bank_Level_Parallism_Ready = 6.804370
write_to_read_ratio_blp_rw_average = 0.473246
GrpLevelPara = 1.000000 

BW Util details:
bwutil = 0.510367 
total_CMD = 7524 
util_bw = 3840 
Wasted_Col = 463 
Wasted_Row = 0 
Idle = 3221 

BW Util Bottlenecks: 
RCDc_limit = 0 
RCDWRc_limit = 25 
WTRc_limit = 2228 
RTWc_limit = 2067 
CCDLc_limit = 0 
rwq = 0 
CCDLc_limit_alone = 0 
WTRc_limit_alone = 2228 
RTWc_limit_alone = 2067 

Commands details: 
total_CMD = 7524 
n_nop = 5591 
Read = 0 
Write = 960 
L2_Alloc = 960 
L2_WB = 0 
n_act = 16 
n_pre = 0 
n_ref = 0 
n_req = 480 
total_req = 1920 

Dual Bus Interface Util: 
issued_total_row = 16 
issued_total_col = 1920 
Row_Bus_Util =  0.002127 
CoL_Bus_Util = 0.255183 
Either_Row_CoL_Bus_Util = 0.256911 
Issued_on_Two_Bus_Simul_Util = 0.000399 
issued_two_Eff = 0.001552 
queue_avg = 25.204279 


dram_util_bins: 0 0 0 0 0 0 0 0 0 0
dram_eff_bins: 0 0 0 0 0 0 0 0 0 0
mrqq: max=64 avg=25.2043

========= L2 cache stats =========
L2_cache_bank[0]: Access = 130, Miss = 121, Miss_rate = 0.931, Pending_hits = 9, Reservation_fails = 0
L2_cache_bank[1]: Access = 120, Miss = 120, Miss_rate = 1.000, Pending_hits = 0, Reservation_fails = 0
L2_cache_bank[2]: Access = 120, Miss = 120, Miss_rate = 1.000, Pending_hits = 0, Reservation_fails = 2
L2_cache_bank[3]: Access = 130, Miss = 121, Miss_rate = 0.931, Pending_hits = 9, Reservation_fails = 2
L2_cache_bank[4]: Access = 130, Miss = 121, Miss_rate = 0.931, Pending_hits = 9, Reservation_fails = 1
L2_cache_bank[5]: Access = 130, Miss = 121, Miss_rate = 0.931, Pending_hits = 9, Reservation_fails = 1
L2_cache_bank[6]: Access = 120, Miss = 120, Miss_rate = 1.000, Pending_hits = 0, Reservation_fails = 0
L2_cache_bank[7]: Access = 120, Miss = 120, Miss_rate = 1.000, Pending_hits = 0, Reservation_fails = 0
L2_cache_bank[8]: Access = 120, Miss = 120, Miss_rate = 1.000, Pending_hits = 0, Reservation_fails = 0
L2_cache_bank[9]: Access = 120, Miss = 120, Miss_rate = 1.000, Pending_hits = 0, Reservation_fails = 0
L2_cache_bank[10]: Access = 120, Miss = 120, Miss_rate = 1.000, Pending_hits = 0, Reservation_fails = 0
L2_cache_bank[11]: Access = 120, Miss = 120, Miss_rate = 1.000, Pending_hits = 0, Reservation_fails = 0
L2_cache_bank[12]: Access = 120, Miss = 120, Miss_rate = 1.000, Pending_hits = 0, Reservation_fails = 0
L2_cache_bank[13]: Access = 120, Miss = 120, Miss_rate = 1.000, Pending_hits = 0, Reservation_fails = 0
L2_cache_bank[14]: Access = 120, Miss = 120, Miss_rate = 1.000, Pending_hits = 0, Reservation_fails = 0
L2_cache_bank[15]: Access = 120, Miss = 120, Miss_rate = 1.000, Pending_hits = 0, Reservation_fails = 0
L2_total_cache_accesses = 1960
L2_total_cache_misses = 1924
L2_total_cache_miss_rate = 0.9816
L2_total_cache_pending_hits = 36
L2_total_cache_reservation_fails = 6
L2_total_cache_breakdown:
	L2_cache_stats_breakdown[GLOBAL_ACC_R][HIT] = 0
	L2_cache_stats_breakdown[GLOBAL_ACC_R][HIT_RESERVED] = 0
	L2_cache_stats_breakdown[GLOBAL_ACC_R][MISS] = 0
	L2_cache_stats_breakdown[GLOBAL_ACC_R][RESERVATION_FAIL] = 0
	L2_cache_stats_breakdown[GLOBAL_ACC_R][SECTOR_MISS] = 0
	L2_cache_stats_breakdown[GLOBAL_ACC_R][MSHR_HIT] = 0
	L2_cache_stats_breakdown[LOCAL_ACC_R][HIT] = 0
	L2_cache_stats_breakdown[LOCAL_ACC_R][HIT_RESERVED] = 0
	L2_cache_stats_breakdown[LOCAL_ACC_R][MISS] = 0
	L2_cache_stats_breakdown[LOCAL_ACC_R][RESERVATION_FAIL] = 0
	L2_cache_stats_breakdown[LOCAL_ACC_R][SECTOR_MISS] = 0
	L2_cache_stats_breakdown[LOCAL_ACC_R][MSHR_HIT] = 0
	L2_cache_stats_breakdown[CONST_ACC_R][HIT] = 0
	L2_cache_stats_breakdown[CONST_ACC_R][HIT_RESERVED] = 9
	L2_cache_stats_breakdown[CONST_ACC_R][MISS] = 1
	L2_cache_stats_breakdown[CONST_ACC_R][RESERVATION_FAIL] = 0
	L2_cache_stats_breakdown[CONST_ACC_R][SECTOR_MISS] = 0
	L2_cache_stats_breakdown[CONST_ACC_R][MSHR_HIT] = 9
	L2_cache_stats_breakdown[TEXTURE_ACC_R][HIT] = 0
	L2_cache_stats_breakdown[TEXTURE_ACC_R][HIT_RESERVED] = 0
	L2_cache_stats_breakdown[TEXTURE_ACC_R][MISS] = 0
	L2_cache_stats_breakdown[TEXTURE_ACC_R][RESERVATION_FAIL] = 0
	L2_cache_stats_breakdown[TEXTURE_ACC_R][SECTOR_MISS] = 0
	L2_cache_stats_breakdown[TEXTURE_ACC_R][MSHR_HIT] = 0
	L2_cache_stats_breakdown[GLOBAL_ACC_W][HIT] = 0
	L2_cache_stats_breakdown[GLOBAL_ACC_W][HIT_RESERVED] = 0
	L2_cache_stats_breakdown[GLOBAL_ACC_W][MISS] = 1920
	L2_cache_stats_breakdown[GLOBAL_ACC_W][RESERVATION_FAIL] = 6
	L2_cache_stats_breakdown[GLOBAL_ACC_W][SECTOR_MISS] = 0
	L2_cache_stats_breakdown[GLOBAL_ACC_W][MSHR_HIT] = 0
	L2_cache_stats_breakdown[LOCAL_ACC_W][HIT] = 0
	L2_cache_stats_breakdown[LOCAL_ACC_W][HIT_RESERVED] = 0
	L2_cache_stats_breakdown[LOCAL_ACC_W][MISS] = 0
	L2_cache_stats_breakdown[LOCAL_ACC_W][RESERVATION_FAIL] = 0
	L2_cache_stats_breakdown[LOCAL_ACC_W][SECTOR_MISS] = 0
	L2_cache_stats_breakdown[LOCAL_ACC_W][MSHR_HIT] = 0
	L2_cache_stats_breakdown[L1_WRBK_ACC][HIT] = 0
	L2_cache_stats_breakdown[L1_WRBK_ACC][HIT_RESERVED] = 0
	L2_cache_stats_breakdown[L1_WRBK_ACC][MISS] = 0
	L2_cache_stats_breakdown[L1_WRBK_ACC][RESERVATION_FAIL] = 0
	L2_cache_stats_breakdown[L1_WRBK_ACC][SECTOR_MISS] = 0
	L2_cache_stats_breakdown[L1_WRBK_ACC][MSHR_HIT] = 0
	L2_cache_stats_breakdown[L2_WRBK_ACC][HIT] = 0
	L2_cache_stats_breakdown[L2_WRBK_ACC][HIT_RESERVED] = 0
	L2_cache_stats_breakdown[L2_WRBK_ACC][MISS] = 0
	L2_cache_stats_breakdown[L2_WRBK_ACC][RESERVATION_FAIL] = 0
	L2_cache_stats_breakdown[L2_WRBK_ACC][SECTOR_MISS] = 0
	L2_cache_stats_breakdown[L2_WRBK_ACC][MSHR_HIT] = 0
	L2_cache_stats_breakdown[INST_ACC_R][HIT] = 0
	L2_cache_stats_breakdown[INST_ACC_R][HIT_RESERVED] = 27
	L2_cache_stats_breakdown[INST_ACC_R][MISS] = 3
	L2_cache_stats_breakdown[INST_ACC_R][RESERVATION_FAIL] = 0
	L2_cache_stats_breakdown[INST_ACC_R][SECTOR_MISS] = 0
	L2_cache_stats_breakdown[INST_ACC_R][MSHR_HIT] = 27
	L2_cache_stats_breakdown[L1_WR_ALLOC_R][HIT] = 0
	L2_cache_stats_breakdown[L1_WR_ALLOC_R][HIT_RESERVED] = 0
	L2_cache_stats_breakdown[L1_WR_ALLOC_R][MISS] = 0
	L2_cache_stats_breakdown[L1_WR_ALLOC_R][RESERVATION_FAIL] = 0
	L2_cache_stats_breakdown[L1_WR_ALLOC_R][SECTOR_MISS] = 0
	L2_cache_stats_breakdown[L1_WR_ALLOC_R][MSHR_HIT] = 0
	L2_cache_stats_breakdown[L2_WR_ALLOC_R][HIT] = 0
	L2_cache_stats_breakdown[L2_WR_ALLOC_R][HIT_RESERVED] = 0
	L2_cache_stats_breakdown[L2_WR_ALLOC_R][MISS] = 0
	L2_cache_stats_breakdown[L2_WR_ALLOC_R][RESERVATION_FAIL] = 0
	L2_cache_stats_breakdown[L2_WR_ALLOC_R][SECTOR_MISS] = 0
	L2_cache_stats_breakdown[L2_WR_ALLOC_R][MSHR_HIT] = 0
	L2_cache_stats_breakdown[CONST_ACC_R][TOTAL_ACCESS] = 10
	L2_cache_stats_breakdown[GLOBAL_ACC_W][TOTAL_ACCESS] = 1920
	L2_cache_stats_breakdown[INST_ACC_R][TOTAL_ACCESS] = 30
L2_total_cache_reservation_fail_breakdown:
	L2_cache_stats_fail_breakdown[GLOBAL_ACC_W][MISS_QUEUE_FULL] = 6
L2_cache_data_port_util = 0.000
L2_cache_fill_port_util = 0.099

icnt_total_pkts_mem_to_simt=2100
icnt_total_pkts_simt_to_mem=9640
LD_mem_lat_dist  0 0 0 0 0 0 0 0 0 0 0 0 0 0 0 0 0 0 0 0 0 0 0 0 0 0 0
ST_mem_lat_dist  0 0 0 0 0 0 0 0 0 0 0 0 0 0 0 0 0 0 0 0 0 0 0 0 0 0 0
----------------------------Interconnect-DETAILS--------------------------------
Class 0:
[...]
Issued_on_Two_Bus_Simul_Util = 0.000000 
issued_two_Eff = 0.000000 
queue_avg = 3.180426 


dram_util_bins: 0 0 0 0 0 0 0 0 0 0
dram_eff_bins: 0 0 0 0 0 0 0 0 0 0
mrqq: max=64 avg=3.18043
Memory Partition 2: 
Cache L2_bank_004:
MSHR contents

Cache L2_bank_005:
MSHR contents

In Dram Latency Queue (total = 0): 
DRAM[2]: 16 bks, busW=4 BL=8 CL=12, tRRD=6 tCCD=2, tRCD=12 tRAS=28 tRP=12 tRC=40
n_cmd=72983 n_nop=71016 n_act=19 n_pre=3 n_ref_event=0 n_req=494 n_rd=8 n_rd_L2_A=968 n_write=970 n_wr_bk=0 bw_util=0.05333
n_activity=4651 dram_eff=0.8368
bk0: 68a 70230i bk1: 68a 70172i bk2: 64a 69979i bk3: 64a 69947i bk4: 64a 69732i bk5: 64a 69685i bk6: 64a 69778i bk7: 64a 69716i bk8: 64a 69835i bk9: 64a 69806i bk10: 64a 69693i bk11: 64a 69644i bk12: 64a 69625i bk13: 64a 69609i bk14: 36a 71272i bk15: 36a 71223i 

------------------------------------------------------------------------

Row_Buffer_Locality = 0.961538
Row_Buffer_Locality_read = 0.991803
Row_Buffer_Locality_write = 0.932000
Bank_Level_Parallism = 10.728546
Bank_Level_Parallism_Col = 10.723186
Bank_Level_Parallism_Ready = 6.175051
write_to_read_ratio_blp_rw_average = 0.477157
GrpLevelPara = 1.000000 

BW Util details:
bwutil = 0.053327 
total_CMD = 72983 
util_bw = 3892 
Wasted_Col = 621 
Wasted_Row = 0 
Idle = 68470 

BW Util Bottlenecks: 
RCDc_limit = 19 
RCDWRc_limit = 35 
WTRc_limit = 2260 
RTWc_limit = 2169 
CCDLc_limit = 0 
rwq = 0 
CCDLc_limit_alone = 0 
WTRc_limit_alone = 2260 
RTWc_limit_alone = 2169 

Commands details: 
total_CMD = 72983 
n_nop = 71016 
Read = 8 
Write = 970 
L2_Alloc = 968 
L2_WB = 0 
n_act = 19 
n_pre = 3 
n_ref = 0 
n_req = 494 
total_req = 1946 

Dual Bus Interface Util: 
issued_total_row = 22 
issued_total_col = 1946 
Row_Bus_Util =  0.000301 
CoL_Bus_Util = 0.026664 
Either_Row_CoL_Bus_Util = 0.026951 
Issued_on_Two_Bus_Simul_Util = 0.000014 
issued_two_Eff = 0.000508 
queue_avg = 2.456435 


dram_util_bins: 0 0 0 0 0 0 0 0 0 0
dram_eff_bins: 0 0 0 0 0 0 0 0 0 0
mrqq: max=64 avg=2.45643
Memory Partition 3: 
Cache L2_bank_006:
MSHR contents

Cache L2_bank_007:
MSHR contents

In Dram Latency Queue (total = 0): 
DRAM[3]: 16 bks, busW=4 BL=8 CL=12, tRRD=6 tCCD=2, tRCD=12 tRAS=28 tRP=12 tRC=40
n_cmd=72983 n_nop=71034 n_act=16 n_pre=0 n_ref_event=0 n_req=487 n_rd=0 n_rd_L2_A=968 n_write=965 n_wr_bk=0 bw_util=0.05297
n_activity=4338 dram_eff=0.8912
bk0: 64a 69811i bk1: 64a 69743i bk2: 64a 69448i bk3: 64a 69434i bk4: 64a 69215i bk5: 64a 69198i bk6: 64a 69357i bk7: 64a 69323i bk8: 64a 69293i bk9: 64a 69277i bk10: 64a 69369i bk11: 64a 69335i bk12: 64a 69318i bk13: 64a 69302i bk14: 36a 70793i bk15: 36a 70864i 

------------------------------------------------------------------------

Row_Buffer_Locality = 0.967146
Row_Buffer_Locality_read = 1.000000
Row_Buffer_Locality_write = 0.934694
Bank_Level_Parallism = 12.895648
Bank_Level_Parallism_Col = 12.891645
Bank_Level_Parallism_Ready = 7.111686
write_to_read_ratio_blp_rw_average = 0.491307
GrpLevelPara = 1.000000 

BW Util details:
bwutil = 0.052971 
total_CMD = 72983 
util_bw = 3866 
Wasted_Col = 415 
Wasted_Row = 0 
Idle = 68702 

BW Util Bottlenecks: 
RCDc_limit = 0 
RCDWRc_limit = 19 
WTRc_limit = 2178 
RTWc_limit = 2265 
CCDLc_limit = 0 
rwq = 0 
CCDLc_limit_alone = 0 
WTRc_limit_alone = 2178 
RTWc_limit_alone = 2265 

Commands details: 
total_CMD = 72983 
n_nop = 71034 
Read = 0 
Write = 965 
L2_Alloc = 968 
L2_WB = 0 
n_act = 16 
n_pre = 0 
n_ref = 0 
n_req = 487 
total_req = 1933 

Dual Bus Interface Util: 
issued_total_row = 16 
issued_total_col = 1933 
Row_Bus_Util =  0.000219 
CoL_Bus_Util = 0.026486 
Either_Row_CoL_Bus_Util = 0.026705 
Issued_on_Two_Bus_Simul_Util = 0.000000 
issued_two_Eff = 0.000000 
queue_avg = 3.119439 


dram_util_bins: 0 0 0 0 0 0 0 0 0 0
dram_eff_bins: 0 0 0 0 0 0 0 0 0 0
mrqq: max=64 avg=3.11944
Memory Partition 4: 
Cache L2_bank_008:
MSHR contents

Cache L2_bank_009:
MSHR contents

In Dram Latency Queue (total = 0): 
DRAM[4]: 16 bks, busW=4 BL=8 CL=12, tRRD=6 tCCD=2, tRCD=12 tRAS=28 tRP=12 tRC=40
n_cmd=72983 n_nop=71038 n_act=16 n_pre=0 n_ref_event=0 n_req=484 n_rd=0 n_rd_L2_A=968 n_write=962 n_wr_bk=0 bw_util=0.05289
n_activity=4482 dram_eff=0.8612
bk0: 64a 70675i bk1: 64a 70572i bk2: 64a 69935i bk3: 64a 69887i bk4: 64a 69804i bk5: 64a 69746i bk6: 64a 69715i bk7: 64a 69666i bk8: 64a 69576i bk9: 64a 69562i bk10: 64a 69733i bk11: 64a 69684i bk12: 64a 69569i bk13: 64a 69551i bk14: 36a 71107i bk15: 36a 71053i 

------------------------------------------------------------------------

Row_Buffer_Locality = 0.966942
Row_Buffer_Locality_read = 1.000000
Row_Buffer_Locality_write = 0.933884
Bank_Level_Parallism = 11.007967
Bank_Level_Parallism_Col = 11.008654
Bank_Level_Parallism_Ready = 6.257497
write_to_read_ratio_blp_rw_average = 0.470927
GrpLevelPara = 1.000000 

BW Util details:
bwutil = 0.052889 
total_CMD = 72983 
util_bw = 3860 
Wasted_Col = 542 
Wasted_Row = 0 
Idle = 68581 

BW Util Bottlenecks: 
RCDc_limit = 0 
RCDWRc_limit = 30 
WTRc_limit = 2206 
RTWc_limit = 2045 
CCDLc_limit = 0 
rwq = 0 
CCDLc_limit_alone = 0 
WTRc_limit_alone = 2206 
RTWc_limit_alone = 2045 

Commands details: 
total_CMD = 72983 
n_nop = 71038 
Read = 0 
Write = 962 
L2_Alloc = 968 
L2_WB = 0 
n_act = 16 
n_pre = 0 
n_ref = 0 
n_req = 484 
total_req = 1930 

Dual Bus Interface Util: 
issued_total_row = 16 
issued_total_col = 1930 
Row_Bus_Util =  0.000219 
CoL_Bus_Util = 0.026445 
Either_Row_CoL_Bus_Util = 0.026650 
Issued_on_Two_Bus_Simul_Util = 0.000014 
issued_two_Eff = 0.000514 
queue_avg = 2.588452 


dram_util_bins: 0 0 0 0 0 0 0 0 0 0
dram_eff_bins: 0 0 0 0 0 0 0 0 0 0
mrqq: max=64 avg=2.58845
Memory Partition 5: 
Cache L2_bank_010:
MSHR contents

Cache L2_bank_011:
MSHR contents

In Dram Latency Queue (total = 0): 
DRAM[5]: 16 bks, busW=4 BL=8 CL=12, tRRD=6 tCCD=2, tRCD=12 tRAS=28 tRP=12 tRC=40
n_cmd=72983 n_nop=71023 n_act=18 n_pre=2 n_ref_event=0 n_req=489 n_rd=8 n_rd_L2_A=968 n_write=965 n_wr_bk=0 bw_util=0.05319
n_activity=4490 dram_eff=0.8646
bk0: 68a 69735i bk1: 68a 69748i bk2: 64a 69735i bk3: 64a 69702i bk4: 64a 69379i bk5: 64a 69516i bk6: 64a 69420i bk7: 64a 69472i bk8: 64a 69338i bk9: 64a 69387i bk10: 64a 69655i bk11: 64a 69634i bk12: 64a 69306i bk13: 64a 69290i bk14: 36a 71010i bk15: 36a 70916i 

------------------------------------------------------------------------

Row_Buffer_Locality = 0.963190
Row_Buffer_Locality_read = 0.991803
Row_Buffer_Locality_write = 0.934694
Bank_Level_Parallism = 12.106286
Bank_Level_Parallism_Col = 12.171843
Bank_Level_Parallism_Ready = 6.766615
write_to_read_ratio_blp_rw_average = 0.485416
GrpLevelPara = 1.000000 

BW Util details:
bwutil = 0.053190 
total_CMD = 72983 
util_bw = 3882 
Wasted_Col = 478 
Wasted_Row = 24 
Idle = 68599 

BW Util Bottlenecks: 
RCDc_limit = 24 
RCDWRc_limit = 30 
WTRc_limit = 2179 
RTWc_limit = 2255 
CCDLc_limit = 0 
rwq = 0 
CCDLc_limit_alone = 0 
WTRc_limit_alone = 2179 
RTWc_limit_alone = 2255 

Commands details: 
total_CMD = 72983 
n_nop = 71023 
Read = 8 
Write = 965 
L2_Alloc = 968 
L2_WB = 0 
n_act = 18 
n_pre = 2 
n_ref = 0 
n_req = 489 
total_req = 1941 

Dual Bus Interface Util: 
issued_total_row = 20 
issued_total_col = 1941 
Row_Bus_Util =  0.000274 
CoL_Bus_Util = 0.026595 
Either_Row_CoL_Bus_Util = 0.026856 
Issued_on_Two_Bus_Simul_Util = 0.000014 
issued_two_Eff = 0.000510 
queue_avg = 3.160380 


dram_util_bins: 0 0 0 0 0 0 0 0 0 0
dram_eff_bins: 0 0 0 0 0 0 0 0 0 0
mrqq: max=64 avg=3.16038
Memory Partition 6: 
Cache L2_bank_012:
MSHR contents

Cache L2_bank_013:
MSHR contents

In Dram Latency Queue (total = 0): 
DRAM[6]: 16 bks, busW=4 BL=8 CL=12, tRRD=6 tCCD=2, tRCD=12 tRAS=28 tRP=12 tRC=40
n_cmd=72983 n_nop=71025 n_act=18 n_pre=2 n_ref_event=0 n_req=487 n_rd=8 n_rd_L2_A=968 n_write=963 n_wr_bk=0 bw_util=0.05314
n_activity=4587 dram_eff=0.8454
bk0: 68a 69947i bk1: 68a 69946i bk2: 64a 69760i bk3: 64a 69714i bk4: 64a 69691i bk5: 64a 69628i bk6: 64a 69595i bk7: 64a 69529i bk8: 64a 69471i bk9: 64a 69489i bk10: 64a 69937i bk11: 64a 69833i bk12: 64a 69457i bk13: 64a 69457i bk14: 36a 71247i bk15: 36a 71168i 

------------------------------------------------------------------------

Row_Buffer_Locality = 0.963039
Row_Buffer_Locality_read = 0.991803
Row_Buffer_Locality_write = 0.934156
Bank_Level_Parallism = 11.298833
Bank_Level_Parallism_Col = 11.362712
Bank_Level_Parallism_Ready = 6.496140
write_to_read_ratio_blp_rw_average = 0.465009
GrpLevelPara = 1.000000 

BW Util details:
bwutil = 0.053136 
total_CMD = 72983 
util_bw = 3878 
Wasted_Col = 563 
Wasted_Row = 24 
Idle = 68518 

BW Util Bottlenecks: 
RCDc_limit = 24 
RCDWRc_limit = 49 
WTRc_limit = 2225 
RTWc_limit = 1993 
CCDLc_limit = 0 
rwq = 0 
CCDLc_limit_alone = 0 
WTRc_limit_alone = 2225 
RTWc_limit_alone = 1993 

Commands details: 
total_CMD = 72983 
n_nop = 71025 
Read = 8 
Write = 963 
L2_Alloc = 968 
L2_WB = 0 
n_act = 18 
n_pre = 2 
n_ref = 0 
n_req = 487 
total_req = 1939 

Dual Bus Interface Util: 
issued_total_row = 20 
issued_total_col = 1939 
Row_Bus_Util =  0.000274 
CoL_Bus_Util = 0.026568 
Either_Row_CoL_Bus_Util = 0.026828 
Issued_on_Two_Bus_Simul_Util = 0.000014 
issued_two_Eff = 0.000511 
queue_avg = 2.529219 


dram_util_bins: 0 0 0 0 0 0 0 0 0 0
dram_eff_bins: 0 0 0 0 0 0 0 0 0 0
mrqq: max=64 avg=2.52922
Memory Partition 7: 
Cache L2_bank_014:
MSHR contents

Cache L2_bank_015:
MSHR contents

In Dram Latency Queue (total = 0): 
DRAM[7]: 16 bks, busW=4 BL=8 CL=12, tRRD=6 tCCD=2, tRCD=12 tRAS=28 tRP=12 tRC=40
n_cmd=72983 n_nop=71026 n_act=17 n_pre=1 n_ref_event=0 n_req=493 n_rd=4 n_rd_L2_A=968 n_write=970 n_wr_bk=0 bw_util=0.05322
n_activity=4509 dram_eff=0.8614
bk0: 68a 70048i bk1: 64a 69979i bk2: 64a 69591i bk3: 64a 69557i bk4: 64a 69624i bk5: 64a 69516i bk6: 64a 69447i bk7: 64a 69397i bk8: 64a 69401i bk9: 64a 69386i bk10: 64a 69808i bk11: 64a 69755i bk12: 64a 69373i bk13: 64a 69356i bk14: 36a 70869i bk15: 36a 71089i 

------------------------------------------------------------------------

Row_Buffer_Locality = 0.965517
Row_Buffer_Locality_read = 0.995885
Row_Buffer_Locality_write = 0.936000
Bank_Level_Parallism = 11.860662
Bank_Level_Parallism_Col = 11.891101
Bank_Level_Parallism_Ready = 6.738683
write_to_read_ratio_blp_rw_average = 0.470255
GrpLevelPara = 1.000000 

BW Util details:
bwutil = 0.053218 
total_CMD = 72983 
util_bw = 3884 
Wasted_Col = 503 
Wasted_Row = 12 
Idle = 68584 

BW Util Bottlenecks: 
RCDc_limit = 12 
RCDWRc_limit = 25 
WTRc_limit = 2246 
RTWc_limit = 2077 
CCDLc_limit = 0 
rwq = 0 
CCDLc_limit_alone = 0 
WTRc_limit_alone = 2246 
RTWc_limit_alone = 2077 

Commands details: 
total_CMD = 72983 
n_nop = 71026 
Read = 4 
Write = 970 
L2_Alloc = 968 
L2_WB = 0 
n_act = 17 
n_pre = 1 
n_ref = 0 
n_req = 493 
total_req = 1942 

Dual Bus Interface Util: 
issued_total_row = 18 
issued_total_col = 1942 
Row_Bus_Util =  0.000247 
CoL_Bus_Util = 0.026609 
Either_Row_CoL_Bus_Util = 0.026814 
Issued_on_Two_Bus_Simul_Util = 0.000041 
issued_two_Eff = 0.001533 
queue_avg = 2.598537 


dram_util_bins: 0 0 0 0 0 0 0 0 0 0
dram_eff_bins: 0 0 0 0 0 0 0 0 0 0
mrqq: max=64 avg=2.59854

========= L2 cache stats =========
L2_cache_bank[0]: Access = 656, Miss = 123, Miss_rate = 0.188, Pending_hits = 33, Reservation_fails = 0
L2_cache_bank[1]: Access = 636, Miss = 122, Miss_rate = 0.192, Pending_hits = 21, Reservation_fails = 0
L2_cache_bank[2]: Access = 636, Miss = 122, Miss_rate = 0.192, Pending_hits = 22, Reservation_fails = 2
L2_cache_bank[3]: Access = 636, Miss = 122, Miss_rate = 0.192, Pending_hits = 10, Reservation_fails = 2
L2_cache_bank[4]: Access = 626, Miss = 122, Miss_rate = 0.195, Pending_hits = 11, Reservation_fails = 1
L2_cache_bank[5]: Access = 626, Miss = 122, Miss_rate = 0.195, Pending_hits = 15, Reservation_fails = 1
L2_cache_bank[6]: Access = 616, Miss = 121, Miss_rate = 0.196, Pending_hits = 1, Reservation_fails = 0
L2_cache_bank[7]: Access = 616, Miss = 121, Miss_rate = 0.196, Pending_hits = 2, Reservation_fails = 0
L2_cache_bank[8]: Access = 616, Miss = 121, Miss_rate = 0.196, Pending_hits = 0, Reservation_fails = 0
L2_cache_bank[9]: Access = 616, Miss = 121, Miss_rate = 0.196, Pending_hits = 0, Reservation_fails = 0
L2_cache_bank[10]: Access = 626, Miss = 122, Miss_rate = 0.195, Pending_hits = 12, Reservation_fails = 0
L2_cache_bank[11]: Access = 626, Miss = 122, Miss_rate = 0.195, Pending_hits = 9, Reservation_fails = 0
L2_cache_bank[12]: Access = 636, Miss = 122, Miss_rate = 0.192, Pending_hits = 10, Reservation_fails = 0
L2_cache_bank[13]: Access = 626, Miss = 122, Miss_rate = 0.195, Pending_hits = 9, Reservation_fails = 0
L2_cache_bank[14]: Access = 626, Miss = 122, Miss_rate = 0.195, Pending_hits = 11, Reservation_fails = 0
L2_cache_bank[15]: Access = 616, Miss = 121, Miss_rate = 0.196, Pending_hits = 6, Reservation_fails = 0
L2_total_cache_accesses = 10036
L2_total_cache_misses = 1948
L2_total_cache_miss_rate = 0.1941
L2_total_cache_pending_hits = 172
L2_total_cache_reservation_fails = 6
L2_total_cache_breakdown:
	L2_cache_stats_breakdown[GLOBAL_ACC_R][HIT] = 5120
	L2_cache_stats_breakdown[GLOBAL_ACC_R][HIT_RESERVED] = 0
	L2_cache_stats_breakdown[GLOBAL_ACC_R][MISS] = 0
	L2_cache_stats_breakdown[GLOBAL_ACC_R][RESERVATION_FAIL] = 0
	L2_cache_stats_breakdown[GLOBAL_ACC_R][SECTOR_MISS] = 0
	L2_cache_stats_breakdown[GLOBAL_ACC_R][MSHR_HIT] = 0
	L2_cache_stats_breakdown[LOCAL_ACC_R][HIT] = 0
	L2_cache_stats_breakdown[LOCAL_ACC_R][HIT_RESERVED] = 0
	L2_cache_stats_breakdown[LOCAL_ACC_R][MISS] = 0
	L2_cache_stats_breakdown[LOCAL_ACC_R][RESERVATION_FAIL] = 0
	L2_cache_stats_breakdown[LOCAL_ACC_R][SECTOR_MISS] = 0
	L2_cache_stats_breakdown[LOCAL_ACC_R][MSHR_HIT] = 0
	L2_cache_stats_breakdown[CONST_ACC_R][HIT] = 10
	L2_cache_stats_breakdown[CONST_ACC_R][HIT_RESERVED] = 9
	L2_cache_stats_breakdown[CONST_ACC_R][MISS] = 1
	L2_cache_stats_breakdown[CONST_ACC_R][RESERVATION_FAIL] = 0
	L2_cache_stats_breakdown[CONST_ACC_R][SECTOR_MISS] = 0
	L2_cache_stats_breakdown[CONST_ACC_R][MSHR_HIT] = 9
	L2_cache_stats_breakdown[TEXTURE_ACC_R][HIT] = 0
	L2_cache_stats_breakdown[TEXTURE_ACC_R][HIT_RESERVED] = 0
	L2_cache_stats_breakdown[TEXTURE_ACC_R][MISS] = 0
	L2_cache_stats_breakdown[TEXTURE_ACC_R][RESERVATION_FAIL] = 0
	L2_cache_stats_breakdown[TEXTURE_ACC_R][SECTOR_MISS] = 0
	L2_cache_stats_breakdown[TEXTURE_ACC_R][MSHR_HIT] = 0
	L2_cache_stats_breakdown[GLOBAL_ACC_W][HIT] = 2765
	L2_cache_stats_breakdown[GLOBAL_ACC_W][HIT_RESERVED] = 35
	L2_cache_stats_breakdown[GLOBAL_ACC_W][MISS] = 1936
	L2_cache_stats_breakdown[GLOBAL_ACC_W][RESERVATION_FAIL] = 6
	L2_cache_stats_breakdown[GLOBAL_ACC_W][SECTOR_MISS] = 0
	L2_cache_stats_breakdown[GLOBAL_ACC_W][MSHR_HIT] = 0
	L2_cache_stats_breakdown[LOCAL_ACC_W][HIT] = 0
	L2_cache_stats_breakdown[LOCAL_ACC_W][HIT_RESERVED] = 0
	L2_cache_stats_breakdown[LOCAL_ACC_W][MISS] = 0
	L2_cache_stats_breakdown[LOCAL_ACC_W][RESERVATION_FAIL] = 0
	L2_cache_stats_breakdown[LOCAL_ACC_W][SECTOR_MISS] = 0
	L2_cache_stats_breakdown[LOCAL_ACC_W][MSHR_HIT] = 0
	L2_cache_stats_breakdown[L1_WRBK_ACC][HIT] = 0
	L2_cache_stats_breakdown[L1_WRBK_ACC][HIT_RESERVED] = 0
	L2_cache_stats_breakdown[L1_WRBK_ACC][MISS] = 0
	L2_cache_stats_breakdown[L1_WRBK_ACC][RESERVATION_FAIL] = 0
	L2_cache_stats_breakdown[L1_WRBK_ACC][SECTOR_MISS] = 0
	L2_cache_stats_breakdown[L1_WRBK_ACC][MSHR_HIT] = 0
	L2_cache_stats_breakdown[L2_WRBK_ACC][HIT] = 0
	L2_cache_stats_breakdown[L2_WRBK_ACC][HIT_RESERVED] = 0
	L2_cache_stats_breakdown[L2_WRBK_ACC][MISS] = 0
	L2_cache_stats_breakdown[L2_WRBK_ACC][RESERVATION_FAIL] = 0
	L2_cache_stats_breakdown[L2_WRBK_ACC][SECTOR_MISS] = 0
	L2_cache_stats_breakdown[L2_WRBK_ACC][MSHR_HIT] = 0
	L2_cache_stats_breakdown[INST_ACC_R][HIT] = 21
	L2_cache_stats_breakdown[INST_ACC_R][HIT_RESERVED] = 128
	L2_cache_stats_breakdown[INST_ACC_R][MISS] = 11
	L2_cache_stats_breakdown[INST_ACC_R][RESERVATION_FAIL] = 0
	L2_cache_stats_breakdown[INST_ACC_R][SECTOR_MISS] = 0
	L2_cache_stats_breakdown[INST_ACC_R][MSHR_HIT] = 128
	L2_cache_stats_breakdown[L1_WR_ALLOC_R][HIT] = 0
	L2_cache_stats_breakdown[L1_WR_ALLOC_R][HIT_RESERVED] = 0
	L2_cache_stats_breakdown[L1_WR_ALLOC_R][MISS] = 0
	L2_cache_stats_breakdown[L1_WR_ALLOC_R][RESERVATION_FAIL] = 0
	L2_cache_stats_breakdown[L1_WR_ALLOC_R][SECTOR_MISS] = 0
	L2_cache_stats_breakdown[L1_WR_ALLOC_R][MSHR_HIT] = 0
	L2_cache_stats_breakdown[L2_WR_ALLOC_R][HIT] = 0
	L2_cache_stats_breakdown[L2_WR_ALLOC_R][HIT_RESERVED] = 0
	L2_cache_stats_breakdown[L2_WR_ALLOC_R][MISS] = 0
	L2_cache_stats_breakdown[L2_WR_ALLOC_R][RESERVATION_FAIL] = 0
	L2_cache_stats_breakdown[L2_WR_ALLOC_R][SECTOR_MISS] = 0
	L2_cache_stats_breakdown[L2_WR_ALLOC_R][MSHR_HIT] = 35
	L2_cache_stats_breakdown[GLOBAL_ACC_R][TOTAL_ACCESS] = 5120
	L2_cache_stats_breakdown[CONST_ACC_R][TOTAL_ACCESS] = 20
	L2_cache_stats_breakdown[GLOBAL_ACC_W][TOTAL_ACCESS] = 4736
	L2_cache_stats_breakdown[INST_ACC_R][TOTAL_ACCESS] = 160
L2_total_cache_reservation_fail_breakdown:
	L2_cache_stats_fail_breakdown[GLOBAL_ACC_W][MISS_QUEUE_FULL] = 6
L2_cache_data_port_util = 0.041
L2_cache_fill_port_util = 0.010

icnt_total_pkts_mem_to_simt=31196
icnt_total_pkts_simt_to_mem=28212
LD_mem_lat_dist  0 0 0 0 0 0 0 0 0 0 0 0 0 0 0 0 0 0 0 0 0 0 0 0 0 0 0
ST_mem_lat_dist  0 0 0 0 0 0 0 0 0 0 0 0 0 0 0 0 0 0 0 0 0 0 0 0 0 0 0
----------------------------Interconnect-DETAILS--------------------------------
Class 0:
Packet latency average = 48.618929
	minimum = 6.000000
	maximum = 838.000000
Network latency average = 31.305729
	minimum = 6.000000
	maximum = 513.000000
Slowest packet = 17837
Flit latency average = 24.804804
	minimum = 6.000000
	maximum = 513.000000
Slowest flit = 51985
Fragmentation average = 0.000000
	minimum = 0.000000
	maximum = 0.000000
Injected packet rate average = 0.001887
	minimum = 0.000000 (at node 36)
	maximum = 0.004258 (at node 10)
Accepted packet rate average = 0.001887
	minimum = 0.000000 (at node 36)
	maximum = 0.004258 (at node 10)
Injected flit rate average = 0.005209
	minimum = 0.000000 (at node 36)
	maximum = 0.015154 (at node 20)
Accepted flit rate average= 0.005209
	minimum = 0.000000 (at node 36)
	maximum = 0.019764 (at node 10)
Injected packet length average = 2.760897
Accepted packet length average = 2.760897
Total in-flight flits = 0 (0 measured)
====== Overall Traffic Statistics ======
====== Traffic class 0 ======
Packet latency average = 42.125169 (6 samples)
	minimum = 6.000000 (6 samples)
	maximum = 600.833333 (6 samples)
Network latency average = 29.254198 (6 samples)
	minimum = 6.000000 (6 samples)
	maximum = 517.166667 (6 samples)
Flit latency average = 24.204521 (6 samples)
	minimum = 6.000000 (6 samples)
	maximum = 515.833333 (6 samples)
Fragmentation average = 0.770011 (6 samples)
	minimum = 0.000000 (6 samples)
	maximum = 257.666667 (6 samples)
Injected packet rate average = 0.024359 (6 samples)
	minimum = 0.000000 (6 samples)
	maximum = 0.060822 (6 samples)
Accepted packet rate average = 0.024359 (6 samples)
	minimum = 0.000000 (6 samples)
	maximum = 0.060822 (6 samples)
Injected flit rate average = 0.072954 (6 samples)
	minimum = 0.000000 (6 samples)
	maximum = 0.180921 (6 samples)
Accepted flit rate average = 0.072954 (6 samples)
	minimum = 0.000000 (6 samples)
	maximum = 0.205570 (6 samples)
Injected packet size average = 2.994931 (6 samples)
Accepted packet size average = 2.994931 (6 samples)
Hops average = 1.000000 (6 samples)
----------------------------END-of-Interconnect-DETAILS-------------------------


gpgpu_simulation_time = 0 days, 0 hrs, 0 min, 58 sec (58 sec)
gpgpu_simulation_rate = 591823 (inst/sec)
gpgpu_simulation_rate = 808 (cycle/sec)
gpgpu_silicon_slowdown = 1988861x
Function    MBytes/sec  Min (sec)   Max         Average     
Copy        0.232       0.70476     0.70476     0.70476     
Mul         0.204       0.80414     0.80414     0.80414     
Add         0.272       0.90415     0.90415     0.90415     
Triad       0.272       0.90408     0.90408     0.90408     
Dot         0.003       53.05464    53.05464    53.05464    
GPGPU-Sim: *** exit detected ***
