GPGPU-Sim version 4.2.0 (build gpgpu-sim_git-commit-13c67115070dc2f0876254a790d0238073ca364a-modified_590.0) configured with AccelWattch.

----------------------------------------------------------------------------
INFO - If you only care about PTX execution, ignore this message. GPGPU-Sim supports PTX execution in modern CUDA.
If you want to run PTXPLUS (sm_1x SASS) with a modern card configuration - set the envronment variable
$PTXAS_CUDA_INSTALL_PATH to point a CUDA version compabible with your card configurations (i.e. 8+ for PASCAL, 9+ for VOLTA etc..)
For example: "export $PTXAS_CUDA_INSTALL_PATH=/usr/local/cuda-9.1"

The following text describes why:
If you are using PTXPLUS, only sm_1x is supported and it requires that the app and simulator binaries are compiled in CUDA 4.2 or less.
The simulator requires it since CUDA headers desribe struct sizes in the exec which change from gen to gen.
The apps require 4.2 because new versions of CUDA tools have dropped parsing support for generating sm_1x
When running using modern config (i.e. volta) and PTXPLUS with CUDA 4.2, the $PTXAS_CUDA_INSTALL_PATH env variable is required to get proper register usage
(and hence occupancy) using a version of CUDA that knows the register usage on the real card.

----------------------------------------------------------------------------
setup_environment succeeded


        *** GPGPU-Sim Simulator Version 4.2.0  [build gpgpu-sim_git-commit-13c67115070dc2f0876254a790d0238073ca364a_modified_0.0] ***


GPGPU-Sim PTX: simulation mode 0 (can change with PTX_SIM_MODE_FUNC environment variable:
               1=functional simulation only, 0=detailed performance simulator)
GPGPU-Sim PTX: overriding embedded ptx with ptx file (PTX_SIM_USE_PTX_FILE is set)
GPGPU-Sim: Configuration options:

-save_embedded_ptx                      0 # saves ptx files embedded in binary as <n>.ptx
-keep                                   0 # keep intermediate files created by GPGPU-Sim when interfacing with external programs
-gpgpu_ptx_save_converted_ptxplus                    0 # Saved converted ptxplus to a file
-gpgpu_occupancy_sm_number                   60 # The SM number to pass to ptxas when getting register usage for computing GPU occupancy. This parameter is required in the config.
-ptx_opcode_latency_int         4,13,4,5,145 # Opcode latencies for integers <ADD,MAX,MUL,MAD,DIV,SHFL>Default 1,1,19,25,145,32
-ptx_opcode_latency_fp          4,13,4,5,39 # Opcode latencies for single precision floating points <ADD,MAX,MUL,MAD,DIV>Default 1,1,1,1,30
-ptx_opcode_latency_dp         8,19,8,8,330 # Opcode latencies for double precision floating points <ADD,MAX,MUL,MAD,DIV>Default 8,8,8,8,335
-ptx_opcode_latency_sfu                    8 # Opcode latencies for SFU instructionsDefault 8
-ptx_opcode_latency_tesnor                   64 # Opcode latencies for Tensor instructionsDefault 64
-ptx_opcode_initiation_int            1,2,2,2,8 # Opcode initiation intervals for integers <ADD,MAX,MUL,MAD,DIV,SHFL>Default 1,1,4,4,32,4
-ptx_opcode_initiation_fp            1,2,1,1,4 # Opcode initiation intervals for single precision floating points <ADD,MAX,MUL,MAD,DIV>Default 1,1,1,1,5
-ptx_opcode_initiation_dp          1,2,1,1,130 # Opcode initiation intervals for double precision floating points <ADD,MAX,MUL,MAD,DIV>Default 8,8,8,8,130
-ptx_opcode_initiation_sfu                    8 # Opcode initiation intervals for sfu instructionsDefault 8
-ptx_opcode_initiation_tensor                   64 # Opcode initiation intervals for tensor instructionsDefault 64
-cdp_latency         7200,8000,100,12000,1600 # CDP API latency <cudaStreamCreateWithFlags, cudaGetParameterBufferV2_init_perWarp, cudaGetParameterBufferV2_perKernel, cudaLaunchDeviceV2_init_perWarp, cudaLaunchDevicV2_perKernel>Default 7200,8000,100,12000,1600
-network_mode                           1 # Interconnection network mode
-inter_config_file   config_fermi_islip.icnt # Interconnection network config file
-icnt_in_buffer_limit                   64 # in_buffer_limit
-icnt_out_buffer_limit                   64 # out_buffer_limit
-icnt_subnets                           2 # subnets
-icnt_arbiter_algo                      1 # arbiter_algo
-icnt_verbose                           0 # inct_verbose
-icnt_grant_cycles                      1 # grant_cycles
-gpgpu_ptx_use_cuobjdump                    1 # Use cuobjdump to extract ptx and sass from binaries
-gpgpu_experimental_lib_support                    0 # Try to extract code from cuda libraries [Broken because of unknown cudaGetExportTable]
-checkpoint_option                      0 #  checkpointing flag (0 = no checkpoint)
-checkpoint_kernel                      1 #  checkpointing during execution of which kernel (1- 1st kernel)
-checkpoint_CTA                         0 #  checkpointing after # of CTA (< less than total CTA)
-resume_option                          0 #  resume flag (0 = no resume)
-resume_kernel                          0 #  Resume from which kernel (1= 1st kernel)
-resume_CTA                             0 #  resume from which CTA 
-checkpoint_CTA_t                       0 #  resume from which CTA 
-checkpoint_insn_Y                      0 #  resume from which CTA 
-gpgpu_ptx_convert_to_ptxplus                    0 # Convert SASS (native ISA) to ptxplus and run ptxplus
-gpgpu_ptx_force_max_capability                   60 # Force maximum compute capability
-gpgpu_ptx_inst_debug_to_file                    0 # Dump executed instructions' debug information to file
-gpgpu_ptx_inst_debug_file       inst_debug.txt # Executed instructions' debug output file
-gpgpu_ptx_inst_debug_thread_uid                    1 # Thread UID for executed instructions' debug output
-gpgpu_simd_model                       1 # 1 = post-dominator
-gpgpu_shader_core_pipeline              2048:32 # shader core pipeline config, i.e., {<nthread>:<warpsize>}
-gpgpu_tex_cache:l1  N:16:128:24,L:R:m:N:L,F:128:4,128:2 # per-shader L1 texture cache  (READ-ONLY) config  {<nsets>:<bsize>:<assoc>,<rep>:<wr>:<alloc>:<wr_alloc>,<mshr>:<N>:<merge>,<mq>:<rf>}
-gpgpu_const_cache:l1 N:128:64:2,L:R:f:N:L,A:2:64,4 # per-shader L1 constant memory cache  (READ-ONLY) config  {<nsets>:<bsize>:<assoc>,<rep>:<wr>:<alloc>:<wr_alloc>,<mshr>:<N>:<merge>,<mq>} 
-gpgpu_cache:il1     N:8:128:4,L:R:f:N:L,A:2:48,4 # shader L1 instruction cache config  {<nsets>:<bsize>:<assoc>,<rep>:<wr>:<alloc>:<wr_alloc>,<mshr>:<N>:<merge>,<mq>} 
-gpgpu_cache:dl1     N:64:128:6,L:L:m:N:H,A:128:8,8 # per-shader L1 data cache config  {<nsets>:<bsize>:<assoc>,<rep>:<wr>:<alloc>:<wr_alloc>,<mshr>:<N>:<merge>,<mq> | none}
-gpgpu_l1_cache_write_ratio                    0 # L1D write ratio
-gpgpu_l1_banks                         1 # The number of L1 cache banks
-gpgpu_l1_banks_byte_interleaving                   32 # l1 banks byte interleaving granularity
-gpgpu_l1_banks_hashing_function                    0 # l1 banks hashing function
-gpgpu_l1_latency                       1 # L1 Hit Latency
-gpgpu_smem_latency                     3 # smem Latency
-gpgpu_cache:dl1PrefL1                 none # per-shader L1 data cache config  {<nsets>:<bsize>:<assoc>,<rep>:<wr>:<alloc>:<wr_alloc>,<mshr>:<N>:<merge>,<mq> | none}
-gpgpu_cache:dl1PrefShared                 none # per-shader L1 data cache config  {<nsets>:<bsize>:<assoc>,<rep>:<wr>:<alloc>:<wr_alloc>,<mshr>:<N>:<merge>,<mq> | none}
-gpgpu_gmem_skip_L1D                    1 # global memory access skip L1D cache (implements -Xptxas -dlcm=cg, default=no skip)
-gpgpu_perfect_mem                      0 # enable perfect memory mode (no cache miss)
-n_regfile_gating_group                    4 # group of lanes that should be read/written together)
-gpgpu_clock_gated_reg_file                    0 # enable clock gated reg file for power calculations
-gpgpu_clock_gated_lanes                    0 # enable clock gated lanes for power calculations
-gpgpu_shader_registers                65536 # Number of registers per shader core. Limits number of concurrent CTAs. (default 8192)
-gpgpu_registers_per_block                 8192 # Maximum number of registers per CTA. (default 8192)
-gpgpu_ignore_resources_limitation                    0 # gpgpu_ignore_resources_limitation (default 0)
-gpgpu_shader_cta                      32 # Maximum number of concurrent CTAs in shader (default 32)
-gpgpu_num_cta_barriers                   16 # Maximum number of named barriers per CTA (default 16)
-gpgpu_n_clusters                      20 # number of processing clusters
-gpgpu_n_cores_per_cluster                    1 # number of simd cores per cluster
-gpgpu_n_cluster_ejection_buffer_size                    8 # number of packets in ejection buffer
-gpgpu_n_ldst_response_buffer_size                    2 # number of response packets in ld/st unit ejection buffer
-gpgpu_shmem_per_block                49152 # Size of shared memory per thread block or CTA (default 48kB)
-gpgpu_shmem_size                   98304 # Size of shared memory per shader core (default 16kB)
-gpgpu_shmem_option                     0 # Option list of shared memory sizes
-gpgpu_unified_l1d_size                    0 # Size of unified data cache(L1D + shared memory) in KB
-gpgpu_adaptive_cache_config                    0 # adaptive_cache_config
-gpgpu_shmem_sizeDefault                16384 # Size of shared memory per shader core (default 16kB)
-gpgpu_shmem_size_PrefL1                16384 # Size of shared memory per shader core (default 16kB)
-gpgpu_shmem_size_PrefShared                16384 # Size of shared memory per shader core (default 16kB)
-gpgpu_shmem_num_banks                   32 # Number of banks in the shared memory in each shader core (default 16)
-gpgpu_shmem_limited_broadcast                    0 # Limit shared memory to do one broadcast per cycle (default on)
-gpgpu_shmem_warp_parts                    1 # Number of portions a warp is divided into for shared memory bank conflict check 
-gpgpu_mem_unit_ports                    1 # The number of memory transactions allowed per core cycle
-gpgpu_shmem_warp_parts                    1 # Number of portions a warp is divided into for shared memory bank conflict check 
-gpgpu_warpdistro_shader                   -1 # Specify which shader core to collect the warp size distribution from
-gpgpu_warp_issue_shader                    0 # Specify which shader core to collect the warp issue distribution from
-gpgpu_local_mem_map                    1 # Mapping from local memory space address to simulated GPU physical address space (default = enabled)
-gpgpu_num_reg_banks                   32 # Number of register banks (default = 8)
-gpgpu_reg_bank_use_warp_id                    0 # Use warp ID in mapping registers to banks (default = off)
-gpgpu_sub_core_model                    0 # Sub Core Volta/Pascal model (default = off)
-gpgpu_enable_specialized_operand_collector                    1 # enable_specialized_operand_collector
-gpgpu_operand_collector_num_units_sp                   20 # number of collector units (default = 4)
-gpgpu_operand_collector_num_units_dp                    0 # number of collector units (default = 0)
-gpgpu_operand_collector_num_units_sfu                    4 # number of collector units (default = 4)
-gpgpu_operand_collector_num_units_int                    0 # number of collector units (default = 0)
-gpgpu_operand_collector_num_units_tensor_core                    4 # number of collector units (default = 4)
-gpgpu_operand_collector_num_units_mem                    8 # number of collector units (default = 2)
-gpgpu_operand_collector_num_units_gen                    0 # number of collector units (default = 0)
-gpgpu_operand_collector_num_in_ports_sp                    4 # number of collector unit in ports (default = 1)
-gpgpu_operand_collector_num_in_ports_dp                    0 # number of collector unit in ports (default = 0)
-gpgpu_operand_collector_num_in_ports_sfu                    1 # number of collector unit in ports (default = 1)
-gpgpu_operand_collector_num_in_ports_int                    0 # number of collector unit in ports (default = 0)
-gpgpu_operand_collector_num_in_ports_tensor_core                    1 # number of collector unit in ports (default = 1)
-gpgpu_operand_collector_num_in_ports_mem                    1 # number of collector unit in ports (default = 1)
-gpgpu_operand_collector_num_in_ports_gen                    0 # number of collector unit in ports (default = 0)
-gpgpu_operand_collector_num_out_ports_sp                    4 # number of collector unit in ports (default = 1)
-gpgpu_operand_collector_num_out_ports_dp                    0 # number of collector unit in ports (default = 0)
-gpgpu_operand_collector_num_out_ports_sfu                    1 # number of collector unit in ports (default = 1)
-gpgpu_operand_collector_num_out_ports_int                    0 # number of collector unit in ports (default = 0)
-gpgpu_operand_collector_num_out_ports_tensor_core                    1 # number of collector unit in ports (default = 1)
-gpgpu_operand_collector_num_out_ports_mem                    1 # number of collector unit in ports (default = 1)
-gpgpu_operand_collector_num_out_ports_gen                    0 # number of collector unit in ports (default = 0)
-gpgpu_coalesce_arch                   13 # Coalescing arch (GT200 = 13, Fermi = 20)
-gpgpu_num_sched_per_core                    2 # Number of warp schedulers per core
-gpgpu_max_insn_issue_per_warp                    2 # Max number of instructions that can be issued per warp in one cycle by scheduler (either 1 or 2)
-gpgpu_dual_issue_diff_exec_units                    1 # should dual issue use two different execution unit resources (Default = 1)
-gpgpu_simt_core_sim_order                    1 # Select the simulation order of cores in a cluster (0=Fix, 1=Round-Robin)
-gpgpu_pipeline_widths 4,0,0,1,1,4,0,0,1,1,6 # Pipeline widths ID_OC_SP,ID_OC_DP,ID_OC_INT,ID_OC_SFU,ID_OC_MEM,OC_EX_SP,OC_EX_DP,OC_EX_INT,OC_EX_SFU,OC_EX_MEM,EX_WB,ID_OC_TENSOR_CORE,OC_EX_TENSOR_CORE
-gpgpu_tensor_core_avail                    0 # Tensor Core Available (default=0)
-gpgpu_num_sp_units                     4 # Number of SP units (default=1)
-gpgpu_num_dp_units                     0 # Number of DP units (default=0)
-gpgpu_num_int_units                    0 # Number of INT units (default=0)
-gpgpu_num_sfu_units                    1 # Number of SF units (default=1)
-gpgpu_num_tensor_core_units                    0 # Number of tensor_core units (default=1)
-gpgpu_num_mem_units                    1 # Number if ldst units (default=1) WARNING: not hooked up to anything
-gpgpu_scheduler                      gto # Scheduler configuration: < lrr | gto | two_level_active > If two_level_active:<num_active_warps>:<inner_prioritization>:<outer_prioritization>For complete list of prioritization values see shader.h enum scheduler_prioritization_typeDefault: gto
-gpgpu_concurrent_kernel_sm                    0 # Support concurrent kernels on a SM (default = disabled)
-gpgpu_perfect_inst_const_cache                    0 # perfect inst and const cache mode, so all inst and const hits in the cache(default = disabled)
-gpgpu_inst_fetch_throughput                    1 # the number of fetched intruction per warp each cycle
-gpgpu_reg_file_port_throughput                    1 # the number ports of the register file
-specialized_unit_1         0,4,4,4,4,BRA # specialized unit config {<enabled>,<num_units>:<latency>:<initiation>,<ID_OC_SPEC>:<OC_EX_SPEC>,<NAME>}
-specialized_unit_2         0,4,4,4,4,BRA # specialized unit config {<enabled>,<num_units>:<latency>:<initiation>,<ID_OC_SPEC>:<OC_EX_SPEC>,<NAME>}
-specialized_unit_3         0,4,4,4,4,BRA # specialized unit config {<enabled>,<num_units>:<latency>:<initiation>,<ID_OC_SPEC>:<OC_EX_SPEC>,<NAME>}
-specialized_unit_4         0,4,4,4,4,BRA # specialized unit config {<enabled>,<num_units>:<latency>:<initiation>,<ID_OC_SPEC>:<OC_EX_SPEC>,<NAME>}
-specialized_unit_5         0,4,4,4,4,BRA # specialized unit config {<enabled>,<num_units>:<latency>:<initiation>,<ID_OC_SPEC>:<OC_EX_SPEC>,<NAME>}
-specialized_unit_6         0,4,4,4,4,BRA # specialized unit config {<enabled>,<num_units>:<latency>:<initiation>,<ID_OC_SPEC>:<OC_EX_SPEC>,<NAME>}
-specialized_unit_7         0,4,4,4,4,BRA # specialized unit config {<enabled>,<num_units>:<latency>:<initiation>,<ID_OC_SPEC>:<OC_EX_SPEC>,<NAME>}
-specialized_unit_8         0,4,4,4,4,BRA # specialized unit config {<enabled>,<num_units>:<latency>:<initiation>,<ID_OC_SPEC>:<OC_EX_SPEC>,<NAME>}
-gpgpu_perf_sim_memcpy                    1 # Fill the L2 cache on memcpy
-gpgpu_simple_dram_model                    0 # simple_dram_model with fixed latency and BW
-gpgpu_dram_scheduler                    1 # 0 = fifo, 1 = FR-FCFS (defaul)
-gpgpu_dram_partition_queues              8:8:8:8 # i2$:$2d:d2$:$2i
-l2_ideal                               0 # Use a ideal L2 cache that always hit
-gpgpu_cache:dl2     N:64:128:16,L:B:m:W:L,A:1024:1024,4:0,32 # unified banked L2 data cache config  {<nsets>:<bsize>:<assoc>,<rep>:<wr>:<alloc>:<wr_alloc>,<mshr>:<N>:<merge>,<mq>}
-gpgpu_cache:dl2_texture_only                    0 # L2 cache used for texture only
-gpgpu_n_mem                            8 # number of memory modules (e.g. memory controllers) in gpu
-gpgpu_n_sub_partition_per_mchannel                    2 # number of memory subpartition in each memory module
-gpgpu_n_mem_per_ctrlr                    1 # number of memory chips per memory controller
-gpgpu_memlatency_stat                   14 # track and display latency statistics 0x2 enables MC, 0x4 enables queue logs
-gpgpu_frfcfs_dram_sched_queue_size                   64 # 0 = unlimited (default); # entries per chip
-gpgpu_dram_return_queue_size                  116 # 0 = unlimited (default); # entries per chip
-gpgpu_dram_buswidth                    4 # default = 4 bytes (8 bytes per cycle at DDR)
-gpgpu_dram_burst_length                    8 # Burst length of each DRAM request (default = 4 data bus cycle)
-dram_data_command_freq_ratio                    4 # Frequency ratio between DRAM data bus and command bus (default = 2 times, i.e. DDR)
-gpgpu_dram_timing_opt nbk=16:CCD=2:RRD=6:RCD=12:RAS=28:RP=12:RC=40: CL=12:WL=4:CDLR=5:WR=12:nbkgrp=1:CCDL=0:RTPL=0 # DRAM timing parameters = {nbk:tCCD:tRRD:tRCD:tRAS:tRP:tRC:CL:WL:tCDLR:tWR:nbkgrp:tCCDL:tRTPL}
-gpgpu_l2_rop_latency                  120 # ROP queue latency (default 85)
-dram_latency                         100 # DRAM latency (default 30)
-dram_dual_bus_interface                    0 # dual_bus_interface (default = 0) 
-dram_bnk_indexing_policy                    0 # dram_bnk_indexing_policy (0 = normal indexing, 1 = Xoring with the higher bits) (Default = 0)
-dram_bnkgrp_indexing_policy                    0 # dram_bnkgrp_indexing_policy (0 = take higher bits, 1 = take lower bits) (Default = 0)
-dram_seperate_write_queue_enable                    0 # Seperate_Write_Queue_Enable
-dram_write_queue_size             32:28:16 # Write_Queue_Size
-dram_elimnate_rw_turnaround                    0 # elimnate_rw_turnaround i.e set tWTR and tRTW = 0
-icnt_flit_size                        32 # icnt_flit_size
-gpgpu_mem_addr_mapping dramid@8;00000000.00000000.00000000.00000000.0000RRRR.RRRRRRRR.RBBBCCCC.BCCSSSSS # mapping memory address to dram model {dramid@<start bit>;<memory address map>}
-gpgpu_mem_addr_test                    0 # run sweep test to check address mapping for aliased address
-gpgpu_mem_address_mask                    1 # 0 = old addressing mask, 1 = new addressing mask, 2 = new add. mask + flipped bank sel and chip sel bits
-gpgpu_memory_partition_indexing                    0 # 0 = no indexing, 1 = bitwise xoring, 2 = IPoly, 3 = custom indexing
-accelwattch_xml_file accelwattch_sass_sim.xml # AccelWattch XML file
-power_simulation_enabled                    0 # Turn on power simulator (1=On, 0=Off)
-power_per_cycle_dump                    0 # Dump detailed power output each cycle
-hw_perf_file_name            hw_perf.csv # Hardware Performance Statistics file
-hw_perf_bench_name                       # Kernel Name in Hardware Performance Statistics file
-power_simulation_mode                    0 # Switch performance counter input for power simulation (0=Sim, 1=HW, 2=HW-Sim Hybrid)
-dvfs_enabled                           0 # Turn on DVFS for power model
-aggregate_power_stats                    0 # Accumulate power across all kernels
-accelwattch_hybrid_perfsim_L1_RH                    0 # Get L1 Read Hits for Accelwattch-Hybrid from Accel-Sim
-accelwattch_hybrid_perfsim_L1_RM                    0 # Get L1 Read Misses for Accelwattch-Hybrid from Accel-Sim
-accelwattch_hybrid_perfsim_L1_WH                    0 # Get L1 Write Hits for Accelwattch-Hybrid from Accel-Sim
-accelwattch_hybrid_perfsim_L1_WM                    0 # Get L1 Write Misses for Accelwattch-Hybrid from Accel-Sim
-accelwattch_hybrid_perfsim_L2_RH                    0 # Get L2 Read Hits for Accelwattch-Hybrid from Accel-Sim
-accelwattch_hybrid_perfsim_L2_RM                    0 # Get L2 Read Misses for Accelwattch-Hybrid from Accel-Sim
-accelwattch_hybrid_perfsim_L2_WH                    0 # Get L2 Write Hits for Accelwattch-Hybrid from Accel-Sim
-accelwattch_hybrid_perfsim_L2_WM                    0 # Get L2 Write Misses for Accelwattch-Hybrid from Accel-Sim
-accelwattch_hybrid_perfsim_CC_ACC                    0 # Get Constant Cache Acesses for Accelwattch-Hybrid from Accel-Sim
-accelwattch_hybrid_perfsim_SHARED_ACC                    0 # Get Shared Memory Acesses for Accelwattch-Hybrid from Accel-Sim
-accelwattch_hybrid_perfsim_DRAM_RD                    0 # Get DRAM Reads for Accelwattch-Hybrid from Accel-Sim
-accelwattch_hybrid_perfsim_DRAM_WR                    0 # Get DRAM Writes for Accelwattch-Hybrid from Accel-Sim
-accelwattch_hybrid_perfsim_NOC                    0 # Get Interconnect Acesses for Accelwattch-Hybrid from Accel-Sim
-accelwattch_hybrid_perfsim_PIPE_DUTY                    0 # Get Pipeline Duty Cycle Acesses for Accelwattch-Hybrid from Accel-Sim
-accelwattch_hybrid_perfsim_NUM_SM_IDLE                    0 # Get Number of Idle SMs for Accelwattch-Hybrid from Accel-Sim
-accelwattch_hybrid_perfsim_CYCLES                    0 # Get Executed Cycles for Accelwattch-Hybrid from Accel-Sim
-accelwattch_hybrid_perfsim_VOLTAGE                    0 # Get Chip Voltage for Accelwattch-Hybrid from Accel-Sim
-power_trace_enabled                    0 # produce a file for the power trace (1=On, 0=Off)
-power_trace_zlevel                     6 # Compression level of the power trace output log (0=no comp, 9=highest)
-steady_power_levels_enabled                    0 # produce a file for the steady power levels (1=On, 0=Off)
-steady_state_definition                  8:4 # allowed deviation:number of samples
-gpgpu_max_cycle                        0 # terminates gpu simulation early (0 = no limit)
-gpgpu_max_insn                         0 # terminates gpu simulation early (0 = no limit)
-gpgpu_max_cta                          0 # terminates gpu simulation early (0 = no limit)
-gpgpu_max_completed_cta                    0 # terminates gpu simulation early (0 = no limit)
-gpgpu_runtime_stat                   500 # display runtime statistics such as dram utilization {<freq>:<flag>}
-liveness_message_freq                    1 # Minimum number of seconds between simulation liveness messages (0 = always print)
-gpgpu_compute_capability_major                    7 # Major compute capability version number
-gpgpu_compute_capability_minor                    0 # Minor compute capability version number
-gpgpu_flush_l1_cache                    0 # Flush L1 cache at the end of each kernel call
-gpgpu_flush_l2_cache                    0 # Flush L2 cache at the end of each kernel call
-gpgpu_deadlock_detect                    1 # Stop the simulation at deadlock (1=on (default), 0=off)
-gpgpu_ptx_instruction_classification                    0 # if enabled will classify ptx instruction types per kernel (Max 255 kernels now)
-gpgpu_ptx_sim_mode                     0 # Select between Performance (default) or Functional simulation (1)
-gpgpu_clock_domains 1607.0:2962.0:1607.0:2750.0 # Clock Domain Frequencies in MhZ {<Core Clock>:<ICNT Clock>:<L2 Clock>:<DRAM Clock>}
-gpgpu_max_concurrent_kernel                   32 # maximum kernels that can run concurrently on GPU, set this value according to max resident grids for your compute capability
-gpgpu_cflog_interval                    0 # Interval between each snapshot in control flow logger
-visualizer_enabled                     0 # Turn on visualizer output (1=On, 0=Off)
-visualizer_outputfile                 NULL # Specifies the output log file for visualizer
-visualizer_zlevel                      6 # Compression level of the visualizer output log (0=no comp, 9=highest)
-gpgpu_stack_size_limit                 1024 # GPU thread stack size
-gpgpu_heap_size_limit              8388608 # GPU malloc heap size 
-gpgpu_runtime_sync_depth_limit                    2 # GPU device runtime synchronize depth
-gpgpu_runtime_pending_launch_count_limit                 2048 # GPU device runtime pending launch count
-trace_enabled                          0 # Turn on traces
-trace_components                    none # comma seperated list of traces to enable. Complete list found in trace_streams.tup. Default none
-trace_sampling_core                    0 # The core which is printed using CORE_DPRINTF. Default 0
-trace_sampling_memory_partition                   -1 # The memory partition which is printed using MEMPART_DPRINTF. Default -1 (i.e. all)
-enable_ptx_file_line_stats                    1 # Turn on PTX source line statistic profiling. (1 = On)
-ptx_line_stats_filename gpgpu_inst_stats.txt # Output file for PTX source line statistics.
-gpgpu_kernel_launch_latency                    0 # Kernel launch latency in cycles. Default: 0
-gpgpu_cdp_enabled                      0 # Turn on CDP
-gpgpu_TB_launch_latency                    0 # thread block launch latency in cycles. Default: 0
DRAM Timing Options:
nbk                                    16 # number of banks
CCD                                     2 # column to column delay
RRD                                     6 # minimal delay between activation of rows in different banks
RCD                                    12 # row to column delay
RAS                                    28 # time needed to activate row
RP                                     12 # time needed to precharge (deactivate) row
RC                                     40 # row cycle time
CDLR                                    5 # switching from write to read (changes tWTR)
WR                                     12 # last data-in to row precharge
CL                                     12 # CAS latency
WL                                      4 # Write latency
nbkgrp                                  1 # number of bank groups
CCDL                                    0 # column to column delay between accesses to different bank groups
RTPL                                    0 # read to precharge delay between accesses to different bank groups
Total number of memory sub partition = 16
addr_dec_mask[CHIP]  = 0000000000000700 	high:11 low:8
addr_dec_mask[BK]    = 0000000000038080 	high:18 low:7
addr_dec_mask[ROW]   = 000000007ffc0000 	high:31 low:18
addr_dec_mask[COL]   = 000000000000787f 	high:15 low:0
addr_dec_mask[BURST] = 000000000000001f 	high:5 low:0
sub_partition_id_mask = 0000000000000080
GPGPU-Sim uArch: clock freqs: 1607000000.000000:2962000000.000000:1607000000.000000:2750000000.000000
GPGPU-Sim uArch: clock periods: 0.00000000062227753578:0.00000000033760972316:0.00000000062227753578:0.00000000036363636364
*** Initializing Memory Statistics ***
GPGPU-Sim uArch: interconnect node map (shaderID+MemID to icntID)
GPGPU-Sim uArch: Memory nodes ID start from index: 20
GPGPU-Sim uArch:    0   1   2   3   4   5   6
GPGPU-Sim uArch:    7   8   9  10  11  12  13
GPGPU-Sim uArch:   14  15  16  17  18  19  20
GPGPU-Sim uArch:   21  22  23  24  25  26  27
GPGPU-Sim uArch:   28  29  30  31  32  33  34
GPGPU-Sim uArch:   35  36  37  38  39  40  41
GPGPU-Sim uArch:   42  43  44  45  46  47  48
GPGPU-Sim uArch:   49
GPGPU-Sim uArch: interconnect node reverse map (icntID to shaderID+MemID)
GPGPU-Sim uArch: Memory nodes start from ID: 20
GPGPU-Sim uArch:    0   1   2   3   4   5   6
GPGPU-Sim uArch:    7   8   9  10  11  12  13
GPGPU-Sim uArch:   14  15  16  17  18  19  20
GPGPU-Sim uArch:   21  22  23  24  25  26  27
GPGPU-Sim uArch:   28  29  30  31  32  33  34
GPGPU-Sim uArch:   35  36  37  38  39  40  41
GPGPU-Sim uArch:   42  43  44  45  46  47  48
GPGPU-Sim uArch:   49
1a59f2de6ffc29df983f1ea1c1c9d604  /benchrun/accelsim-ptx/babelstream/sm6_gtx1080/input-arraysize-10240-numtimes-1/CUDAStream
Extracting PTX file and ptxas options    1: CUDAStream.1.sm_30.ptx -arch=sm_30
GPGPU-Sim uArch: performance model initialization complete.
self exe links to: /benchrun/accelsim-ptx/babelstream/sm6_gtx1080/input-arraysize-10240-numtimes-1/CUDAStream
self exe links to: /benchrun/accelsim-ptx/babelstream/sm6_gtx1080/input-arraysize-10240-numtimes-1/CUDAStream
10.1
GPGPU-Sim PTX: __cudaRegisterFatBinary, fat_cubin_handle = 1, filename=default
self exe links to: /benchrun/accelsim-ptx/babelstream/sm6_gtx1080/input-arraysize-10240-numtimes-1/CUDAStream
Running md5sum using "md5sum /benchrun/accelsim-ptx/babelstream/sm6_gtx1080/input-arraysize-10240-numtimes-1/CUDAStream "
self exe links to: /benchrun/accelsim-ptx/babelstream/sm6_gtx1080/input-arraysize-10240-numtimes-1/CUDAStream
Extracting specific PTX file named CUDAStream.1.sm_30.ptx 
GPGPU-Sim PTX: __cudaRegisterFunction _Z11init_kernelIdEvPT_S1_S1_S0_S0_S0_ : hostFun 0x0x5646d66104f1, fat_cubin_handle = 1
GPGPU-Sim PTX: Parsing CUDAStream.1.sm_30.ptx
GPGPU-Sim PTX: instruction assembly for function '_Z11copy_kernelIfEvPKT_PS0_'...   done.
GPGPU-Sim PTX: instruction assembly for function '_Z10add_kernelIfEvPKT_S2_PS0_'...   done.
GPGPU-Sim PTX: instruction assembly for function '_Z10mul_kernelIfEvPT_PKS0_'...   done.
GPGPU-Sim PTX: instruction assembly for function '_Z12triad_kernelIfEvPT_PKS0_S3_'...   done.
GPGPU-Sim PTX: instruction assembly for function '_Z14nstream_kernelIfEvPT_PKS0_S3_'...   done.
GPGPU-Sim PTX: allocating shared region for "_ZZ10dot_kernelIfEvPKT_S2_PS0_iE6tb_sum" from 0x0 to 0x1000 (shared memory space)
GPGPU-Sim PTX: instruction assembly for function '_Z10dot_kernelIfEvPKT_S2_PS0_i'...   done.
GPGPU-Sim PTX: instruction assembly for function '_Z11init_kernelIfEvPT_S1_S1_S0_S0_S0_'...   done.
GPGPU-Sim PTX: instruction assembly for function '_Z11copy_kernelIdEvPKT_PS0_'...   done.
GPGPU-Sim PTX: instruction assembly for function '_Z10add_kernelIdEvPKT_S2_PS0_'...   done.
GPGPU-Sim PTX: instruction assembly for function '_Z10mul_kernelIdEvPT_PKS0_'...   done.
GPGPU-Sim PTX: instruction assembly for function '_Z12triad_kernelIdEvPT_PKS0_S3_'...   done.
GPGPU-Sim PTX: instruction assembly for function '_Z14nstream_kernelIdEvPT_PKS0_S3_'...   done.
GPGPU-Sim PTX: allocating shared region for "_ZZ10dot_kernelIdEvPKT_S2_PS0_iE6tb_sum" from 0x0 to 0x2000 (shared memory space)
GPGPU-Sim PTX: instruction assembly for function '_Z10dot_kernelIdEvPKT_S2_PS0_i'...   done.
GPGPU-Sim PTX: instruction assembly for function '_Z11init_kernelIdEvPT_S1_S1_S0_S0_S0_'...   done.
GPGPU-Sim PTX: finished parsing EMBEDDED .ptx file CUDAStream.1.sm_30.ptx
GPGPU-Sim PTX: loading globals with explicit initializers... 
GPGPU-Sim PTX: finished loading globals (0 bytes total).
GPGPU-Sim PTX: loading constants with explicit initializers...  done.
GPGPU-Sim PTX: Loading PTXInfo from CUDAStream.1.sm_30.ptx
GPGPU-Sim PTX: Kernel '_Z11init_kernelIdEvPT_S1_S1_S0_S0_S0_' : regs=14, lmem=0, smem=0, cmem=368
GPGPU-Sim PTX: Kernel '_Z10dot_kernelIdEvPKT_S2_PS0_i' : regs=12, lmem=0, smem=8192, cmem=348
GPGPU-Sim PTX: Kernel '_Z14nstream_kernelIdEvPT_PKS0_S3_' : regs=12, lmem=0, smem=0, cmem=352
GPGPU-Sim PTX: Kernel '_Z12triad_kernelIdEvPT_PKS0_S3_' : regs=10, lmem=0, smem=0, cmem=352
GPGPU-Sim PTX: Kernel '_Z10mul_kernelIdEvPT_PKS0_' : regs=8, lmem=0, smem=0, cmem=344
GPGPU-Sim PTX: Kernel '_Z10add_kernelIdEvPKT_S2_PS0_' : regs=10, lmem=0, smem=0, cmem=344
GPGPU-Sim PTX: Kernel '_Z11copy_kernelIdEvPKT_PS0_' : regs=6, lmem=0, smem=0, cmem=336
GPGPU-Sim PTX: Kernel '_Z11init_kernelIfEvPT_S1_S1_S0_S0_S0_' : regs=10, lmem=0, smem=0, cmem=356
GPGPU-Sim PTX: Kernel '_Z10dot_kernelIfEvPKT_S2_PS0_i' : regs=12, lmem=0, smem=4096, cmem=348
GPGPU-Sim PTX: Kernel '_Z14nstream_kernelIfEvPT_PKS0_S3_' : regs=10, lmem=0, smem=0, cmem=348
GPGPU-Sim PTX: Kernel '_Z12triad_kernelIfEvPT_PKS0_S3_' : regs=8, lmem=0, smem=0, cmem=348
GPGPU-Sim PTX: Kernel '_Z10mul_kernelIfEvPT_PKS0_' : regs=6, lmem=0, smem=0, cmem=336
GPGPU-Sim PTX: Kernel '_Z10add_kernelIfEvPKT_S2_PS0_' : regs=8, lmem=0, smem=0, cmem=344
GPGPU-Sim PTX: Kernel '_Z11copy_kernelIfEvPKT_PS0_' : regs=6, lmem=0, smem=0, cmem=336
GPGPU-Sim PTX: __cudaRegisterFunction _Z10dot_kernelIdEvPKT_S2_PS0_i : hostFun 0x0x5646d66104bf, fat_cubin_handle = 1
GPGPU-Sim PTX: __cudaRegisterFunction _Z14nstream_kernelIdEvPT_PKS0_S3_ : hostFun 0x0x5646d6610491, fat_cubin_handle = 1
GPGPU-Sim PTX: __cudaRegisterFunction _Z12triad_kernelIdEvPT_PKS0_S3_ : hostFun 0x0x5646d6610463, fat_cubin_handle = 1
GPGPU-Sim PTX: __cudaRegisterFunction _Z10mul_kernelIdEvPT_PKS0_ : hostFun 0x0x5646d661043d, fat_cubin_handle = 1
GPGPU-Sim PTX: __cudaRegisterFunction _Z10add_kernelIdEvPKT_S2_PS0_ : hostFun 0x0x5646d661040f, fat_cubin_handle = 1
GPGPU-Sim PTX: __cudaRegisterFunction _Z11copy_kernelIdEvPKT_PS0_ : hostFun 0x0x5646d66103e9, fat_cubin_handle = 1
GPGPU-Sim PTX: __cudaRegisterFunction _Z11init_kernelIfEvPT_S1_S1_S0_S0_S0_ : hostFun 0x0x5646d661039d, fat_cubin_handle = 1
GPGPU-Sim PTX: __cudaRegisterFunction _Z10dot_kernelIfEvPKT_S2_PS0_i : hostFun 0x0x5646d661036b, fat_cubin_handle = 1
GPGPU-Sim PTX: __cudaRegisterFunction _Z14nstream_kernelIfEvPT_PKS0_S3_ : hostFun 0x0x5646d661033d, fat_cubin_handle = 1
GPGPU-Sim PTX: __cudaRegisterFunction _Z12triad_kernelIfEvPT_PKS0_S3_ : hostFun 0x0x5646d661030f, fat_cubin_handle = 1
GPGPU-Sim PTX: __cudaRegisterFunction _Z10mul_kernelIfEvPT_PKS0_ : hostFun 0x0x5646d66102e9, fat_cubin_handle = 1
GPGPU-Sim PTX: __cudaRegisterFunction _Z10add_kernelIfEvPKT_S2_PS0_ : hostFun 0x0x5646d66102bb, fat_cubin_handle = 1
GPGPU-Sim PTX: __cudaRegisterFunction _Z11copy_kernelIfEvPKT_PS0_ : hostFun 0x0x5646d6610295, fat_cubin_handle = 1
BabelStream
Version: 4.0
Implementation: CUDA
Running kernels 1 times
Precision: double
Array size: 0.1 MB (=0.0 GB)
Total size: 0.2 MB (=0.0 GB)
Using CUDA device GPGPU-Sim_vGPGPU-Sim Simulator Version 4.2.0 
Driver: 10010
GPGPU-Sim PTX: Setting up arguments for 8 bytes starting at 0x7ffedbe46428..
GPGPU-Sim PTX: Setting up arguments for 8 bytes starting at 0x7ffedbe46420..
GPGPU-Sim PTX: Setting up arguments for 8 bytes starting at 0x7ffedbe46418..
GPGPU-Sim PTX: Setting up arguments for 8 bytes starting at 0x7ffedbe46410..
GPGPU-Sim PTX: Setting up arguments for 8 bytes starting at 0x7ffedbe46408..
GPGPU-Sim PTX: Setting up arguments for 8 bytes starting at 0x7ffedbe46400..

GPGPU-Sim PTX: cudaLaunch for 0x0x5646d66104f1 (mode=performance simulation) on stream 0
GPGPU-Sim PTX: finding reconvergence points for '_Z11init_kernelIdEvPT_S1_S1_S0_S0_S0_'...
GPGPU-Sim PTX: Finding dominators for '_Z11init_kernelIdEvPT_S1_S1_S0_S0_S0_'...
GPGPU-Sim PTX: Finding immediate dominators for '_Z11init_kernelIdEvPT_S1_S1_S0_S0_S0_'...
GPGPU-Sim PTX: Finding postdominators for '_Z11init_kernelIdEvPT_S1_S1_S0_S0_S0_'...
GPGPU-Sim PTX: Finding immediate postdominators for '_Z11init_kernelIdEvPT_S1_S1_S0_S0_S0_'...
GPGPU-Sim PTX: pre-decoding instructions for '_Z11init_kernelIdEvPT_S1_S1_S0_S0_S0_'...
GPGPU-Sim PTX: reconvergence points for _Z11init_kernelIdEvPT_S1_S1_S0_S0_S0_...
GPGPU-Sim PTX: ... end of reconvergence points for _Z11init_kernelIdEvPT_S1_S1_S0_S0_S0_
GPGPU-Sim PTX: ... done pre-decoding instructions for '_Z11init_kernelIdEvPT_S1_S1_S0_S0_S0_'.
GPGPU-Sim PTX: pushing kernel '_Z11init_kernelIdEvPT_S1_S1_S0_S0_S0_' to stream 0, gridDim= (10,1,1) blockDim = (1024,1,1) 
GPGPU-Sim uArch: Shader 0 bind to kernel 1 '_Z11init_kernelIdEvPT_S1_S1_S0_S0_S0_'
GPGPU-Sim uArch: CTA/core = 2, limited by: threads
GPGPU-Sim uArch: Shader 1 bind to kernel 1 '_Z11init_kernelIdEvPT_S1_S1_S0_S0_S0_'
GPGPU-Sim uArch: Shader 2 bind to kernel 1 '_Z11init_kernelIdEvPT_S1_S1_S0_S0_S0_'
GPGPU-Sim uArch: Shader 3 bind to kernel 1 '_Z11init_kernelIdEvPT_S1_S1_S0_S0_S0_'
GPGPU-Sim uArch: Shader 4 bind to kernel 1 '_Z11init_kernelIdEvPT_S1_S1_S0_S0_S0_'
GPGPU-Sim uArch: Shader 5 bind to kernel 1 '_Z11init_kernelIdEvPT_S1_S1_S0_S0_S0_'
GPGPU-Sim uArch: Shader 6 bind to kernel 1 '_Z11init_kernelIdEvPT_S1_S1_S0_S0_S0_'
GPGPU-Sim uArch: Shader 7 bind to kernel 1 '_Z11init_kernelIdEvPT_S1_S1_S0_S0_S0_'
GPGPU-Sim uArch: Shader 8 bind to kernel 1 '_Z11init_kernelIdEvPT_S1_S1_S0_S0_S0_'
GPGPU-Sim uArch: Shader 9 bind to kernel 1 '_Z11init_kernelIdEvPT_S1_S1_S0_S0_S0_'
Destroy streams for kernel 1: size 0
kernel_name = _Z11init_kernelIdEvPT_S1_S1_S0_S0_S0_ 
kernel_launch_uid = 1 
gpu_sim_cycle = 3389
gpu_sim_insn = 215040
gpu_ipc =      63.4523
gpu_tot_sim_cycle = 3389
gpu_tot_sim_insn = 215040
gpu_tot_ipc =      63.4523
gpu_tot_issued_cta = 10
gpu_occupancy = 46.9713% 
gpu_tot_occupancy = 46.9713% 
max_total_param_size = 0
gpu_stall_dramfull = 10792
gpu_stall_icnt2sh    = 108
partiton_level_parallism =       0.5783
partiton_level_parallism_total  =       0.5783
partiton_level_parallism_util =       3.3619
partiton_level_parallism_util_total  =       3.3619
L2_BW  =      54.8175 GB/Sec
L2_BW_total  =      54.8175 GB/Sec
gpu_total_sim_rate=215040

========= Core cache stats =========
L1I_cache:
	L1I_total_cache_accesses = 3520
	L1I_total_cache_misses = 938
	L1I_total_cache_miss_rate = 0.2665
	L1I_total_cache_pending_hits = 0
	L1I_total_cache_reservation_fails = 0
L1D_cache:
	L1D_cache_core[0]: Access = 0, Miss = 0, Miss_rate = -nan, Pending_hits = 0, Reservation_fails = 0
	L1D_cache_core[1]: Access = 0, Miss = 0, Miss_rate = -nan, Pending_hits = 0, Reservation_fails = 0
	L1D_cache_core[2]: Access = 0, Miss = 0, Miss_rate = -nan, Pending_hits = 0, Reservation_fails = 0
	L1D_cache_core[3]: Access = 0, Miss = 0, Miss_rate = -nan, Pending_hits = 0, Reservation_fails = 0
	L1D_cache_core[4]: Access = 0, Miss = 0, Miss_rate = -nan, Pending_hits = 0, Reservation_fails = 0
	L1D_cache_core[5]: Access = 0, Miss = 0, Miss_rate = -nan, Pending_hits = 0, Reservation_fails = 0
	L1D_cache_core[6]: Access = 0, Miss = 0, Miss_rate = -nan, Pending_hits = 0, Reservation_fails = 0
	L1D_cache_core[7]: Access = 0, Miss = 0, Miss_rate = -nan, Pending_hits = 0, Reservation_fails = 0
	L1D_cache_core[8]: Access = 0, Miss = 0, Miss_rate = -nan, Pending_hits = 0, Reservation_fails = 0
	L1D_cache_core[9]: Access = 0, Miss = 0, Miss_rate = -nan, Pending_hits = 0, Reservation_fails = 0
	L1D_cache_core[10]: Access = 0, Miss = 0, Miss_rate = -nan, Pending_hits = 0, Reservation_fails = 0
	L1D_cache_core[11]: Access = 0, Miss = 0, Miss_rate = -nan, Pending_hits = 0, Reservation_fails = 0
	L1D_cache_core[12]: Access = 0, Miss = 0, Miss_rate = -nan, Pending_hits = 0, Reservation_fails = 0
	L1D_cache_core[13]: Access = 0, Miss = 0, Miss_rate = -nan, Pending_hits = 0, Reservation_fails = 0
	L1D_cache_core[14]: Access = 0, Miss = 0, Miss_rate = -nan, Pending_hits = 0, Reservation_fails = 0
	L1D_cache_core[15]: Access = 0, Miss = 0, Miss_rate = -nan, Pending_hits = 0, Reservation_fails = 0
	L1D_cache_core[16]: Access = 0, Miss = 0, Miss_rate = -nan, Pending_hits = 0, Reservation_fails = 0
	L1D_cache_core[17]: Access = 0, Miss = 0, Miss_rate = -nan, Pending_hits = 0, Reservation_fails = 0
	L1D_cache_core[18]: Access = 0, Miss = 0, Miss_rate = -nan, Pending_hits = 0, Reservation_fails = 0
	L1D_cache_core[19]: Access = 0, Miss = 0, Miss_rate = -nan, Pending_hits = 0, Reservation_fails = 0
	L1D_total_cache_accesses = 0
	L1D_total_cache_misses = 0
	L1D_total_cache_pending_hits = 0
	L1D_total_cache_reservation_fails = 0
	L1D_cache_data_port_util = 0.000
	L1D_cache_fill_port_util = 0.000
L1C_cache:
	L1C_total_cache_accesses = 1920
	L1C_total_cache_misses = 640
	L1C_total_cache_miss_rate = 0.3333
	L1C_total_cache_pending_hits = 0
	L1C_total_cache_reservation_fails = 1850
L1T_cache:
	L1T_total_cache_accesses = 0
	L1T_total_cache_misses = 0
	L1T_total_cache_pending_hits = 0
	L1T_total_cache_reservation_fails = 0

Total_core_cache_stats:
	Total_core_cache_stats_breakdown[GLOBAL_ACC_R][HIT] = 0
	Total_core_cache_stats_breakdown[GLOBAL_ACC_R][HIT_RESERVED] = 0
	Total_core_cache_stats_breakdown[GLOBAL_ACC_R][MISS] = 0
	Total_core_cache_stats_breakdown[GLOBAL_ACC_R][RESERVATION_FAIL] = 0
	Total_core_cache_stats_breakdown[GLOBAL_ACC_R][SECTOR_MISS] = 0
	Total_core_cache_stats_breakdown[GLOBAL_ACC_R][MSHR_HIT] = 0
	Total_core_cache_stats_breakdown[LOCAL_ACC_R][HIT] = 0
	Total_core_cache_stats_breakdown[LOCAL_ACC_R][HIT_RESERVED] = 0
	Total_core_cache_stats_breakdown[LOCAL_ACC_R][MISS] = 0
	Total_core_cache_stats_breakdown[LOCAL_ACC_R][RESERVATION_FAIL] = 0
	Total_core_cache_stats_breakdown[LOCAL_ACC_R][SECTOR_MISS] = 0
	Total_core_cache_stats_breakdown[LOCAL_ACC_R][MSHR_HIT] = 0
	Total_core_cache_stats_breakdown[CONST_ACC_R][HIT] = 1280
	Total_core_cache_stats_breakdown[CONST_ACC_R][HIT_RESERVED] = 0
	Total_core_cache_stats_breakdown[CONST_ACC_R][MISS] = 640
	Total_core_cache_stats_breakdown[CONST_ACC_R][RESERVATION_FAIL] = 1850
	Total_core_cache_stats_breakdown[CONST_ACC_R][SECTOR_MISS] = 0
	Total_core_cache_stats_breakdown[CONST_ACC_R][MSHR_HIT] = 630
	Total_core_cache_stats_breakdown[TEXTURE_ACC_R][HIT] = 0
	Total_core_cache_stats_breakdown[TEXTURE_ACC_R][HIT_RESERVED] = 0
	Total_core_cache_stats_breakdown[TEXTURE_ACC_R][MISS] = 0
	Total_core_cache_stats_breakdown[TEXTURE_ACC_R][RESERVATION_FAIL] = 0
	Total_core_cache_stats_breakdown[TEXTURE_ACC_R][SECTOR_MISS] = 0
	Total_core_cache_stats_breakdown[TEXTURE_ACC_R][MSHR_HIT] = 0
	Total_core_cache_stats_breakdown[GLOBAL_ACC_W][HIT] = 0
	Total_core_cache_stats_breakdown[GLOBAL_ACC_W][HIT_RESERVED] = 0
	Total_core_cache_stats_breakdown[GLOBAL_ACC_W][MISS] = 0
	Total_core_cache_stats_breakdown[GLOBAL_ACC_W][RESERVATION_FAIL] = 0
	Total_core_cache_stats_breakdown[GLOBAL_ACC_W][SECTOR_MISS] = 0
	Total_core_cache_stats_breakdown[GLOBAL_ACC_W][MSHR_HIT] = 0
	Total_core_cache_stats_breakdown[LOCAL_ACC_W][HIT] = 0
	Total_core_cache_stats_breakdown[LOCAL_ACC_W][HIT_RESERVED] = 0
	Total_core_cache_stats_breakdown[LOCAL_ACC_W][MISS] = 0
	Total_core_cache_stats_breakdown[LOCAL_ACC_W][RESERVATION_FAIL] = 0
	Total_core_cache_stats_breakdown[LOCAL_ACC_W][SECTOR_MISS] = 0
	Total_core_cache_stats_breakdown[LOCAL_ACC_W][MSHR_HIT] = 0
	Total_core_cache_stats_breakdown[L1_WRBK_ACC][HIT] = 0
	Total_core_cache_stats_breakdown[L1_WRBK_ACC][HIT_RESERVED] = 0
	Total_core_cache_stats_breakdown[L1_WRBK_ACC][MISS] = 0
	Total_core_cache_stats_breakdown[L1_WRBK_ACC][RESERVATION_FAIL] = 0
	Total_core_cache_stats_breakdown[L1_WRBK_ACC][SECTOR_MISS] = 0
	Total_core_cache_stats_breakdown[L1_WRBK_ACC][MSHR_HIT] = 0
	Total_core_cache_stats_breakdown[L2_WRBK_ACC][HIT] = 0
	Total_core_cache_stats_breakdown[L2_WRBK_ACC][HIT_RESERVED] = 0
	Total_core_cache_stats_breakdown[L2_WRBK_ACC][MISS] = 0
	Total_core_cache_stats_breakdown[L2_WRBK_ACC][RESERVATION_FAIL] = 0
	Total_core_cache_stats_breakdown[L2_WRBK_ACC][SECTOR_MISS] = 0
	Total_core_cache_stats_breakdown[L2_WRBK_ACC][MSHR_HIT] = 0
	Total_core_cache_stats_breakdown[INST_ACC_R][HIT] = 2582
	Total_core_cache_stats_breakdown[INST_ACC_R][HIT_RESERVED] = 0
	Total_core_cache_stats_breakdown[INST_ACC_R][MISS] = 938
	Total_core_cache_stats_breakdown[INST_ACC_R][RESERVATION_FAIL] = 0
	Total_core_cache_stats_breakdown[INST_ACC_R][SECTOR_MISS] = 0
	Total_core_cache_stats_breakdown[INST_ACC_R][MSHR_HIT] = 908
	Total_core_cache_stats_breakdown[L1_WR_ALLOC_R][HIT] = 0
	Total_core_cache_stats_breakdown[L1_WR_ALLOC_R][HIT_RESERVED] = 0
	Total_core_cache_stats_breakdown[L1_WR_ALLOC_R][MISS] = 0
	Total_core_cache_stats_breakdown[L1_WR_ALLOC_R][RESERVATION_FAIL] = 0
	Total_core_cache_stats_breakdown[L1_WR_ALLOC_R][SECTOR_MISS] = 0
	Total_core_cache_stats_breakdown[L1_WR_ALLOC_R][MSHR_HIT] = 0
	Total_core_cache_stats_breakdown[L2_WR_ALLOC_R][HIT] = 0
	Total_core_cache_stats_breakdown[L2_WR_ALLOC_R][HIT_RESERVED] = 0
	Total_core_cache_stats_breakdown[L2_WR_ALLOC_R][MISS] = 0
	Total_core_cache_stats_breakdown[L2_WR_ALLOC_R][RESERVATION_FAIL] = 0
	Total_core_cache_stats_breakdown[L2_WR_ALLOC_R][SECTOR_MISS] = 0
	Total_core_cache_stats_breakdown[L2_WR_ALLOC_R][MSHR_HIT] = 0
	Total_core_cache_stats_breakdown[CONST_ACC_R][TOTAL_ACCESS] = 1920
	Total_core_cache_stats_breakdown[INST_ACC_R][TOTAL_ACCESS] = 3520

Total_core_cache_fail_stats:
	Total_core_cache_fail_stats_breakdown[CONST_ACC_R][MSHR_MERGE_ENRTY_FAIL] = 1850
ctas_completed 10, Shader 0 warp_id issue ditsribution:
warp_id:
0, 1, 2, 3, 4, 5, 6, 7, 8, 9, 10, 11, 12, 13, 14, 15, 16, 17, 18, 19, 20, 21, 22, 23, 24, 25, 26, 27, 28, 29, 30, 31, 
distro:
21, 21, 21, 21, 21, 21, 21, 21, 21, 21, 21, 21, 21, 21, 21, 21, 21, 21, 21, 21, 21, 21, 21, 21, 21, 21, 21, 21, 21, 21, 21, 21, 
gpgpu_n_tot_thrd_icount = 215040
gpgpu_n_tot_w_icount = 6720
gpgpu_n_stall_shd_mem = 14678
gpgpu_n_mem_read_local = 0
gpgpu_n_mem_write_local = 0
gpgpu_n_mem_read_global = 0
gpgpu_n_mem_write_global = 1920
gpgpu_n_mem_texture = 0
gpgpu_n_mem_const = 10
gpgpu_n_load_insn  = 0
gpgpu_n_store_insn = 30720
gpgpu_n_shmem_insn = 0
gpgpu_n_sstarr_insn = 0
gpgpu_n_tex_insn = 0
gpgpu_n_const_mem_insn = 0
gpgpu_n_param_mem_insn = 61440
gpgpu_n_shmem_bkconflict = 0
gpgpu_n_cache_bkconflict = 0
gpgpu_n_intrawarp_mshr_merge = 0
gpgpu_n_cmem_portconflict = 1850
gpgpu_stall_shd_mem[c_mem][resource_stall] = 1850
gpgpu_stall_shd_mem[s_mem][bk_conf] = 0
gpgpu_stall_shd_mem[gl_mem][resource_stall] = 0
gpgpu_stall_shd_mem[gl_mem][coal_stall] = 960
gpgpu_stall_shd_mem[gl_mem][data_port_stall] = 0
gpu_reg_bank_conflict_stalls = 0
Warp Occupancy Distribution:
Stall:27291	W0_Idle:30310	W0_Scoreboard:753	W1:0	W2:0	W3:0	W4:0	W5:0	W6:0	W7:0	W8:0	W9:0	W10:0	W11:0	W12:0	W13:0	W14:0	W15:0	W16:0	W17:0	W18:0	W19:0	W20:0	W21:0	W22:0	W23:0	W24:0	W25:0	W26:0	W27:0	W28:0	W29:0	W30:0	W31:0	W32:6720
single_issue_nums: WS0:3360	WS1:3360	
dual_issue_nums: WS0:0	WS1:0	
traffic_breakdown_coretomem[CONST_ACC_R] = 80 {8:10,}
traffic_breakdown_coretomem[GLOBAL_ACC_W] = 261120 {136:1920,}
traffic_breakdown_coretomem[INST_ACC_R] = 240 {8:30,}
traffic_breakdown_memtocore[CONST_ACC_R] = 720 {72:10,}
traffic_breakdown_memtocore[GLOBAL_ACC_W] = 15360 {8:1920,}
traffic_breakdown_memtocore[INST_ACC_R] = 4080 {136:30,}
maxmflatency = 1693 
max_icnt2mem_latency = 483 
maxmrqlatency = 1948 
max_icnt2sh_latency = 13 
averagemflatency = 804 
avg_icnt2mem_latency = 40 
avg_mrq_latency = 284 
avg_icnt2sh_latency = 4 
mrq_lat_table:254 	0 	9 	86 	74 	171 	347 	743 	1771 	388 	1 	0 	0 	0 	0 	0 	0 	0 	0 	0 	0 	0 	0 	0 	0 	0 	0 	0 	0 	0 	0 	0 	
dq_lat_table:0 	0 	0 	0 	0 	0 	0 	0 	0 	0 	0 	0 	0 	0 	0 	0 	0 	0 	0 	0 	0 	0 	0 	0 	0 	0 	0 	0 	0 	0 	0 	0 	
mf_lat_table:0 	0 	0 	0 	0 	0 	0 	52 	324 	926 	628 	0 	0 	0 	0 	0 	0 	0 	0 	0 	0 	0 	0 	0 	0 	0 	0 	0 	0 	0 	0 	0 	
icnt2mem_lat_table:0 	0 	34 	1481 	249 	31 	33 	52 	80 	0 	0 	0 	0 	0 	0 	0 	0 	0 	0 	0 	0 	0 	0 	0 	
icnt2sh_lat_table:0 	0 	1918 	12 	0 	0 	0 	0 	0 	0 	0 	0 	0 	0 	0 	0 	0 	0 	0 	0 	0 	0 	0 	0 	
mf_lat_pw_table:0 	0 	0 	0 	0 	0 	0 	0 	2 	1 	2 	0 	0 	0 	0 	0 	0 	0 	0 	0 	0 	0 	0 	0 	0 	0 	0 	0 	0 	0 	0 	0 	
maximum concurrent accesses to same row:
dram[0]:         1         0         0         0         0         0         0         0         0         0         0         0         0         0         0         0 
dram[1]:         0         1         0         0         0         0         0         0         0         0         0         0         0         0         0         0 
dram[2]:         1        30         0         0         0         0         0         0         0         0         0         0         0         0         0         0 
dram[3]:         0         0         0         0         0         0         0         0         0         0         0         0         0         0         0         0 
dram[4]:         0         0         0         0         0         0         0         0         0         0         0         0         0         0         0         0 
dram[5]:         0         0         0         0         0         0         0         0         0         0         0         0         0         0         0         0 
dram[6]:         0         0         0         0         0         0         0         0         0         0         0         0         0         0         0         0 
dram[7]:         0         0         0         0         0         0         0         0         0         0         0         0         0         0         0         0 
maximum service time to same row:
dram[0]:       909       905       924       923       940       937      1023      1020      1045      1039      1034      1027      1142      1132      1249      1239 
dram[1]:       916       684       931       930       947       944      1040      1034      1083      1073      1049      1045      1196      1181      1271      1252 
dram[2]:       532      1978       937       935       951       948      1032      1030      1045      1042      1158      1148      1086      1081      1351      1342 
dram[3]:       928       924       944       942       961       958      1035      1034      1065      1055      1042      1038      1160      1154      1330      1324 
dram[4]:       934       931       959       957       966       963      1075      1072      1058      1056      1077      1075      1208      1198      1421      1412 
dram[5]:       940       935       951       947      1013      1010      1087      1084      1097      1094      1077      1075      1195      1190      1294      1289 
dram[6]:       941       937       961       958       983       980      1082      1077      1117      1113      1120      1118      1111      1108      1214      1212 
dram[7]:       947       944       966       962       978       975      1117      1113      1103      1100      1094      1090      1124      1121      1169      1166 
average row accesses per activate:
dram[0]: 33.000000 32.000000 32.000000 32.000000 32.000000 32.000000 32.000000 32.000000 32.000000 32.000000 32.000000 32.000000 32.000000 32.000000 16.000000 16.000000 
dram[1]: 32.000000 16.500000 32.000000 32.000000 32.000000 32.000000 32.000000 32.000000 32.000000 32.000000 32.000000 32.000000 32.000000 32.000000 16.000000 16.000000 
dram[2]: 16.500000 11.000000 32.000000 32.000000 32.000000 32.000000 32.000000 32.000000 32.000000 32.000000 32.000000 32.000000 32.000000 32.000000 16.000000 16.000000 
dram[3]: 32.000000 32.000000 32.000000 32.000000 32.000000 32.000000 32.000000 32.000000 32.000000 32.000000 32.000000 32.000000 32.000000 32.000000 16.000000 16.000000 
dram[4]: 32.000000 32.000000 32.000000 32.000000 32.000000 32.000000 32.000000 32.000000 32.000000 32.000000 32.000000 32.000000 32.000000 32.000000 16.000000 16.000000 
dram[5]: 32.000000 32.000000 32.000000 32.000000 32.000000 32.000000 32.000000 32.000000 32.000000 32.000000 32.000000 32.000000 32.000000 32.000000 16.000000 16.000000 
dram[6]: 32.000000 32.000000 32.000000 32.000000 32.000000 32.000000 32.000000 32.000000 32.000000 32.000000 32.000000 32.000000 32.000000 32.000000 16.000000 16.000000 
dram[7]: 32.000000 32.000000 32.000000 32.000000 32.000000 32.000000 32.000000 32.000000 32.000000 32.000000 32.000000 32.000000 32.000000 32.000000 16.000000 16.000000 
average row locality = 3844/132 = 29.121212
number of total memory accesses made:
dram[0]:         0         0         0         0         0         0         0         0         0         0         0         0         0         0         0         0 
dram[1]:         0         0         0         0         0         0         0         0         0         0         0         0         0         0         0         0 
dram[2]:         0         0         0         0         0         0         0         0         0         0         0         0         0         0         0         0 
dram[3]:         0         0         0         0         0         0         0         0         0         0         0         0         0         0         0         0 
dram[4]:         0         0         0         0         0         0         0         0         0         0         0         0         0         0         0         0 
dram[5]:         0         0         0         0         0         0         0         0         0         0         0         0         0         0         0         0 
dram[6]:         0         0         0         0         0         0         0         0         0         0         0         0         0         0         0         0 
dram[7]:         0         0         0         0         0         0         0         0         0         0         0         0         0         0         0         0 
total accesses: 0
min_bank_accesses = 0!
min_chip_accesses = 0!
number of total read accesses:
dram[0]:        68        64        64        64        64        64        64        64        64        64        64        64        64        64        32        32 
dram[1]:        64        68        64        64        64        64        64        64        64        64        64        64        64        64        32        32 
dram[2]:        68        68        64        64        64        64        64        64        64        64        64        64        64        64        32        32 
dram[3]:        64        64        64        64        64        64        64        64        64        64        64        64        64        64        32        32 
dram[4]:        64        64        64        64        64        64        64        64        64        64        64        64        64        64        32        32 
dram[5]:        64        64        64        64        64        64        64        64        64        64        64        64        64        64        32        32 
dram[6]:        64        64        64        64        64        64        64        64        64        64        64        64        64        64        32        32 
dram[7]:        64        64        64        64        64        64        64        64        64        64        64        64        64        64        32        32 
total dram reads = 7696
bank skew: 68/32 = 2.12
chip skew: 968/960 = 1.01
number of total write accesses:
dram[0]:        64        64        64        64        64        64        64        64        64        64        64        64        64        64        32        32 
dram[1]:        64        64        64        64        64        64        64        64        64        64        64        64        64        64        32        32 
dram[2]:        64        64        64        64        64        64        64        64        64        64        64        64        64        64        32        32 
dram[3]:        64        64        64        64        64        64        64        64        64        64        64        64        64        64        32        32 
dram[4]:        64        64        64        64        64        64        64        64        64        64        64        64        64        64        32        32 
dram[5]:        64        64        64        64        64        64        64        64        64        64        64        64        64        64        32        32 
dram[6]:        64        64        64        64        64        64        64        64        64        64        64        64        64        64        32        32 
dram[7]:        64        64        64        64        64        64        64        64        64        64        64        64        64        64        32        32 
total dram writes = 7680
bank skew: 64/32 = 2.00
chip skew: 960/960 = 1.00
average mf latency per bank:
dram[0]:        129        96       118       118       112       111       119       120       118       119       114       118       130       136        98        99
dram[1]:        112       109       112       113       107       110       124       124       132       136       131       131       132       132       105       102
dram[2]:        102        87       103       107       103       104        95        96       102       103       109       113       118       123        94        95
dram[3]:        102       102       104       105       112       112       111       110       115       115       119       122       121       121        90        93
dram[4]:         86        87        96        96       104       105       115       115       107       108       120       121       128       131       101        98
dram[5]:         88        93        83        84        99       100       102       103       110       111       107       108       118       120        83        84
dram[6]:         58        58        78        81        76        77        96        97       102       103        96        97       104       105        62        63
dram[7]:         72        71        93        93        90        90       104       104       120       121       109       110        98        98        69        70
maximum mf latency per bank:
dram[0]:       1335      1183      1492      1499      1404      1412      1438      1453      1392      1400      1408      1416      1481      1580      1016      1024
dram[1]:       1429      1446      1399      1410      1417      1360      1439      1446      1673      1684      1676      1693      1499      1450      1206      1214
dram[2]:       1295      1143      1213      1405      1231      1255      1059      1063      1248      1255      1227      1416      1240      1387       958       966
dram[3]:       1295      1303      1226      1240      1408      1417      1313      1321      1357      1343      1419      1487      1341      1322       954       995
dram[4]:       1123      1131      1211      1223      1375      1390      1349      1360      1274      1282      1325      1332      1386      1395      1269      1202
dram[5]:       1039      1074      1080      1088      1167      1175      1164      1174      1291      1298      1264      1272      1303      1360       814       822
dram[6]:        708       716       870       952      1035      1043      1078      1085      1163      1170      1206      1211      1131      1140       696       703
dram[7]:        915       923      1157      1166      1034      1024      1156      1108      1422      1429      1192      1201      1152      1160       768       776
Memory Partition 0: 
Cache L2_bank_000:
MSHR contents

Cache L2_bank_001:
MSHR contents

In Dram Latency Queue (total = 0): 
DRAM[0]: 16 bks, busW=4 BL=8 CL=12, tRRD=6 tCCD=2, tRCD=12 tRAS=28 tRP=12 tRC=40
n_cmd=5798 n_nop=3857 n_act=17 n_pre=1 n_ref_event=0 n_req=481 n_rd=4 n_rd_L2_A=960 n_write=960 n_wr_bk=0 bw_util=0.6637
n_activity=4251 dram_eff=0.9052
bk0: 68a 1888i bk1: 64a 2159i bk2: 64a 1925i bk3: 64a 1914i bk4: 64a 1934i bk5: 64a 1921i bk6: 64a 1913i bk7: 64a 1918i bk8: 64a 1937i bk9: 64a 1919i bk10: 64a 1929i bk11: 64a 2052i bk12: 64a 2041i bk13: 64a 2016i bk14: 32a 3864i bk15: 32a 3805i 

------------------------------------------------------------------------

Row_Buffer_Locality = 0.966736
Row_Buffer_Locality_read = 1.000000
Row_Buffer_Locality_write = 0.933333
Bank_Level_Parallism = 13.771036
Bank_Level_Parallism_Col = 13.767608
Bank_Level_Parallism_Ready = 7.491437
write_to_read_ratio_blp_rw_average = 0.487819
GrpLevelPara = 1.000000 

BW Util details:
bwutil = 0.663677 
total_CMD = 5798 
util_bw = 3848 
Wasted_Col = 373 
Wasted_Row = 0 
Idle = 1577 

BW Util Bottlenecks: 
RCDc_limit = 12 
RCDWRc_limit = 27 
WTRc_limit = 2187 
RTWc_limit = 2226 
CCDLc_limit = 0 
rwq = 0 
CCDLc_limit_alone = 0 
WTRc_limit_alone = 2187 
RTWc_limit_alone = 2226 

Commands details: 
total_CMD = 5798 
n_nop = 3857 
Read = 4 
Write = 960 
L2_Alloc = 960 
L2_WB = 0 
n_act = 17 
n_pre = 1 
n_ref = 0 
n_req = 481 
total_req = 1924 

Dual Bus Interface Util: 
issued_total_row = 18 
issued_total_col = 1924 
Row_Bus_Util =  0.003105 
CoL_Bus_Util = 0.331839 
Either_Row_CoL_Bus_Util = 0.334771 
Issued_on_Two_Bus_Simul_Util = 0.000172 
issued_two_Eff = 0.000515 
queue_avg = 40.787857 


dram_util_bins: 0 0 0 0 0 0 0 0 0 0
dram_eff_bins: 0 0 0 0 0 0 0 0 0 0
mrqq: max=64 avg=40.7879
Memory Partition 1: 
Cache L2_bank_002:
MSHR contents

Cache L2_bank_003:
MSHR contents
MSHR: tag=0xc0033980, atomic=0 1 entries : 0x7ff599775490 :  mf: uid= 11068, sid05:w25, part=1, addr=0xc0033980, load , size=128, unknown  status = IN_PARTITION_MC_RETURNQ (3388), 

In Dram Latency Queue (total = 0): 
DRAM[1]: 16 bks, busW=4 BL=8 CL=12, tRRD=6 tCCD=2, tRCD=12 tRAS=28 tRP=12 tRC=40
n_cmd=5798 n_nop=3857 n_act=17 n_pre=1 n_ref_event=0 n_req=481 n_rd=4 n_rd_L2_A=960 n_write=960 n_wr_bk=0 bw_util=0.6637
n_activity=4278 dram_eff=0.8995
bk0: 64a 2035i bk1: 68a 2002i bk2: 64a 2042i bk3: 64a 2035i bk4: 64a 2054i bk5: 64a 2043i bk6: 64a 1906i bk7: 64a 1888i bk8: 64a 1997i bk9: 64a 1947i bk10: 64a 1890i bk11: 64a 1938i bk12: 64a 2094i bk13: 64a 2062i bk14: 32a 3705i bk15: 32a 4163i 

------------------------------------------------------------------------

Row_Buffer_Locality = 0.964657
Row_Buffer_Locality_read = 0.995851
Row_Buffer_Locality_write = 0.933333
Bank_Level_Parallism = 13.526142
Bank_Level_Parallism_Col = 13.545433
Bank_Level_Parallism_Ready = 7.409564
write_to_read_ratio_blp_rw_average = 0.487586
GrpLevelPara = 1.000000 

BW Util details:
bwutil = 0.663677 
total_CMD = 5798 
util_bw = 3848 
Wasted_Col = 393 
Wasted_Row = 7 
Idle = 1550 

BW Util Bottlenecks: 
RCDc_limit = 12 
RCDWRc_limit = 38 
WTRc_limit = 2297 
RTWc_limit = 2269 
CCDLc_limit = 0 
rwq = 0 
CCDLc_limit_alone = 0 
WTRc_limit_alone = 2297 
RTWc_limit_alone = 2269 

Commands details: 
total_CMD = 5798 
n_nop = 3857 
Read = 4 
Write = 960 
L2_Alloc = 960 
L2_WB = 0 
n_act = 17 
n_pre = 1 
n_ref = 0 
n_req = 481 
total_req = 1924 

Dual Bus Interface Util: 
issued_total_row = 18 
issued_total_col = 1924 
Row_Bus_Util =  0.003105 
CoL_Bus_Util = 0.331839 
Either_Row_CoL_Bus_Util = 0.334771 
Issued_on_Two_Bus_Simul_Util = 0.000172 
issued_two_Eff = 0.000515 
queue_avg = 41.195759 


dram_util_bins: 0 0 0 0 0 0 0 0 0 0
dram_eff_bins: 0 0 0 0 0 0 0 0 0 0
mrqq: max=64 avg=41.1958
Memory Partition 2: 
Cache L2_bank_004:
MSHR contents

Cache L2_bank_005:
MSHR contents

In Dram Latency Queue (total = 0): 
DRAM[2]: 16 bks, busW=4 BL=8 CL=12, tRRD=6 tCCD=2, tRCD=12 tRAS=28 tRP=12 tRC=40
n_cmd=5798 n_nop=3852 n_act=19 n_pre=3 n_ref_event=0 n_req=482 n_rd=8 n_rd_L2_A=960 n_write=960 n_wr_bk=0 bw_util=0.6651
n_activity=4256 dram_eff=0.906
bk0: 68a 1922i bk1: 68a 2083i bk2: 64a 1959i bk3: 64a 1947i bk4: 64a 1965i bk5: 64a 1952i bk6: 64a 2034i bk7: 64a 1981i bk8: 64a 2028i bk9: 64a 1991i bk10: 64a 2058i bk11: 64a 2033i bk12: 64a 1920i bk13: 64a 1903i bk14: 32a 3700i bk15: 32a 3580i 

------------------------------------------------------------------------

Row_Buffer_Locality = 0.960581
Row_Buffer_Locality_read = 0.991736
Row_Buffer_Locality_write = 0.929167
Bank_Level_Parallism = 13.773674
Bank_Level_Parallism_Col = 13.763856
Bank_Level_Parallism_Ready = 7.465249
write_to_read_ratio_blp_rw_average = 0.489389
GrpLevelPara = 1.000000 

BW Util details:
bwutil = 0.665057 
total_CMD = 5798 
util_bw = 3856 
Wasted_Col = 370 
Wasted_Row = 0 
Idle = 1572 

BW Util Bottlenecks: 
RCDc_limit = 12 
RCDWRc_limit = 24 
WTRc_limit = 2160 
RTWc_limit = 2258 
CCDLc_limit = 0 
rwq = 0 
CCDLc_limit_alone = 0 
WTRc_limit_alone = 2160 
RTWc_limit_alone = 2258 

Commands details: 
total_CMD = 5798 
n_nop = 3852 
Read = 8 
Write = 960 
L2_Alloc = 960 
L2_WB = 0 
n_act = 19 
n_pre = 3 
n_ref = 0 
n_req = 482 
total_req = 1928 

Dual Bus Interface Util: 
issued_total_row = 22 
issued_total_col = 1928 
Row_Bus_Util =  0.003794 
CoL_Bus_Util = 0.332528 
Either_Row_CoL_Bus_Util = 0.335633 
Issued_on_Two_Bus_Simul_Util = 0.000690 
issued_two_Eff = 0.002055 
queue_avg = 41.018284 


dram_util_bins: 0 0 0 0 0 0 0 0 0 0
dram_eff_bins: 0 0 0 0 0 0 0 0 0 0
mrqq: max=64 avg=41.0183
Memory Partition 3: 
Cache L2_bank_006:
MSHR contents

Cache L2_bank_007:
MSHR contents

In Dram Latency Queue (total = 0): 
DRAM[3]: 16 bks, busW=4 BL=8 CL=12, tRRD=6 tCCD=2, tRCD=12 tRAS=28 tRP=12 tRC=40
n_cmd=5798 n_nop=3863 n_act=16 n_pre=0 n_ref_event=0 n_req=480 n_rd=0 n_rd_L2_A=960 n_write=960 n_wr_bk=0 bw_util=0.6623
n_activity=4209 dram_eff=0.9123
bk0: 64a 2096i bk1: 64a 2081i bk2: 64a 1950i bk3: 64a 1940i bk4: 64a 1966i bk5: 64a 1952i bk6: 64a 1929i bk7: 64a 1918i bk8: 64a 1987i bk9: 64a 1939i bk10: 64a 1909i bk11: 64a 1893i bk12: 64a 2039i bk13: 64a 2023i bk14: 32a 3956i bk15: 32a 4023i 

------------------------------------------------------------------------

Row_Buffer_Locality = 0.966667
Row_Buffer_Locality_read = 1.000000
Row_Buffer_Locality_write = 0.933333
Bank_Level_Parallism = 13.728442
Bank_Level_Parallism_Col = 13.723612
Bank_Level_Parallism_Ready = 7.490890
write_to_read_ratio_blp_rw_average = 0.488143
GrpLevelPara = 1.000000 

BW Util details:
bwutil = 0.662297 
total_CMD = 5798 
util_bw = 3840 
Wasted_Col = 359 
Wasted_Row = 0 
Idle = 1599 

BW Util Bottlenecks: 
RCDc_limit = 0 
RCDWRc_limit = 12 
WTRc_limit = 2160 
RTWc_limit = 2241 
CCDLc_limit = 0 
rwq = 0 
CCDLc_limit_alone = 0 
WTRc_limit_alone = 2160 
RTWc_limit_alone = 2241 

Commands details: 
total_CMD = 5798 
n_nop = 3863 
Read = 0 
Write = 960 
L2_Alloc = 960 
L2_WB = 0 
n_act = 16 
n_pre = 0 
n_ref = 0 
n_req = 480 
total_req = 1920 

Dual Bus Interface Util: 
issued_total_row = 16 
issued_total_col = 1920 
Row_Bus_Util =  0.002760 
CoL_Bus_Util = 0.331149 
Either_Row_CoL_Bus_Util = 0.333736 
Issued_on_Two_Bus_Simul_Util = 0.000172 
issued_two_Eff = 0.000517 
queue_avg = 40.792515 


dram_util_bins: 0 0 0 0 0 0 0 0 0 0
dram_eff_bins: 0 0 0 0 0 0 0 0 0 0
mrqq: max=64 avg=40.7925
Memory Partition 4: 
Cache L2_bank_008:
MSHR contents
MSHR: tag=0xc002fc00, atomic=0 1 entries : 0x7ff5999f6bb0 :  mf: uid= 11072, sid03:w28, part=4, addr=0xc002fc00, load , size=128, unknown  status = IN_PARTITION_L2_FILL_QUEUE (3388), 
MSHR: tag=0xc0033c00, atomic=0 1 entries : 0x7ff5997741c0 :  mf: uid= 11019, sid05:w28, part=4, addr=0xc0033c00, load , size=128, unknown  status = IN_PARTITION_DRAM (3388), 

Cache L2_bank_009:
MSHR contents
MSHR: tag=0xc002fc80, atomic=0 1 entries : 0x7ff599cb6370 :  mf: uid= 11067, sid03:w28, part=4, addr=0xc002fc80, load , size=128, unknown  status = IN_PARTITION_DRAM (3385), 
MSHR: tag=0xc0033c80, atomic=0 1 entries : 0x7ff599acea50 :  mf: uid= 11014, sid05:w28, part=4, addr=0xc0033c80, load , size=128, unknown  status = IN_PARTITION_DRAM (3388), 

In Dram Latency Queue (total = 0): 
DRAM[4]: 16 bks, busW=4 BL=8 CL=12, tRRD=6 tCCD=2, tRCD=12 tRAS=28 tRP=12 tRC=40
n_cmd=5798 n_nop=3869 n_act=16 n_pre=0 n_ref_event=0 n_req=480 n_rd=0 n_rd_L2_A=954 n_write=960 n_wr_bk=0 bw_util=0.6602
n_activity=4205 dram_eff=0.9103
bk0: 64a 2323i bk1: 64a 2301i bk2: 64a 2093i bk3: 64a 2082i bk4: 64a 2090i bk5: 64a 2076i bk6: 64a 1958i bk7: 64a 1947i bk8: 64a 2170i bk9: 64a 2109i bk10: 64a 2314i bk11: 64a 2267i bk12: 62a 2094i bk13: 60a 2078i bk14: 32a 4226i bk15: 32a 4318i 

------------------------------------------------------------------------

Row_Buffer_Locality = 0.966667
Row_Buffer_Locality_read = 1.000000
Row_Buffer_Locality_write = 0.933333
Bank_Level_Parallism = 13.028299
Bank_Level_Parallism_Col = 13.020695
Bank_Level_Parallism_Ready = 7.164054
write_to_read_ratio_blp_rw_average = 0.487908
GrpLevelPara = 1.000000 

BW Util details:
bwutil = 0.660228 
total_CMD = 5798 
util_bw = 3828 
Wasted_Col = 377 
Wasted_Row = 0 
Idle = 1593 

BW Util Bottlenecks: 
RCDc_limit = 0 
RCDWRc_limit = 25 
WTRc_limit = 2160 
RTWc_limit = 2182 
CCDLc_limit = 0 
rwq = 0 
CCDLc_limit_alone = 0 
WTRc_limit_alone = 2160 
RTWc_limit_alone = 2182 

Commands details: 
total_CMD = 5798 
n_nop = 3869 
Read = 0 
Write = 960 
L2_Alloc = 954 
L2_WB = 0 
n_act = 16 
n_pre = 0 
n_ref = 0 
n_req = 480 
total_req = 1914 

Dual Bus Interface Util: 
issued_total_row = 16 
issued_total_col = 1914 
Row_Bus_Util =  0.002760 
CoL_Bus_Util = 0.330114 
Either_Row_CoL_Bus_Util = 0.332701 
Issued_on_Two_Bus_Simul_Util = 0.000172 
issued_two_Eff = 0.000518 
queue_avg = 40.844429 


dram_util_bins: 0 0 0 0 0 0 0 0 0 0
dram_eff_bins: 0 0 0 0 0 0 0 0 0 0
mrqq: max=64 avg=40.8444
Memory Partition 5: 
Cache L2_bank_010:
MSHR contents
MSHR: tag=0xc0033d00, atomic=0 1 entries : 0x7ff599e4acd0 :  mf: uid= 11130, sid05:w29, part=5, addr=0xc0033d00, load , size=128, unknown  status = IN_PARTITION_DRAM (3388), 

Cache L2_bank_011:
MSHR contents
MSHR: tag=0xc0033d80, atomic=0 1 entries : 0x7ff599af0620 :  mf: uid= 11128, sid05:w29, part=5, addr=0xc0033d80, load , size=128, unknown  status = IN_PARTITION_DRAM (3388), 

In Dram Latency Queue (total = 0): 
DRAM[5]: 16 bks, busW=4 BL=8 CL=12, tRRD=6 tCCD=2, tRCD=12 tRAS=28 tRP=12 tRC=40
n_cmd=5798 n_nop=3871 n_act=16 n_pre=0 n_ref_event=0 n_req=480 n_rd=0 n_rd_L2_A=954 n_write=960 n_wr_bk=0 bw_util=0.6602
n_activity=4198 dram_eff=0.9119
bk0: 64a 2053i bk1: 64a 2031i bk2: 64a 2091i bk3: 64a 2069i bk4: 64a 1990i bk5: 64a 1977i bk6: 64a 1955i bk7: 64a 1942i bk8: 64a 1981i bk9: 64a 1944i bk10: 64a 1971i bk11: 64a 1957i bk12: 62a 2122i bk13: 60a 2089i bk14: 32a 3739i bk15: 32a 3697i 

------------------------------------------------------------------------

Row_Buffer_Locality = 0.966667
Row_Buffer_Locality_read = 1.000000
Row_Buffer_Locality_write = 0.933333
Bank_Level_Parallism = 13.725584
Bank_Level_Parallism_Col = 13.723136
Bank_Level_Parallism_Ready = 7.465553
write_to_read_ratio_blp_rw_average = 0.491111
GrpLevelPara = 1.000000 

BW Util details:
bwutil = 0.660228 
total_CMD = 5798 
util_bw = 3828 
Wasted_Col = 370 
Wasted_Row = 0 
Idle = 1600 

BW Util Bottlenecks: 
RCDc_limit = 0 
RCDWRc_limit = 20 
WTRc_limit = 2196 
RTWc_limit = 2240 
CCDLc_limit = 0 
rwq = 0 
CCDLc_limit_alone = 0 
WTRc_limit_alone = 2196 
RTWc_limit_alone = 2240 

Commands details: 
total_CMD = 5798 
n_nop = 3871 
Read = 0 
Write = 960 
L2_Alloc = 954 
L2_WB = 0 
n_act = 16 
n_pre = 0 
n_ref = 0 
n_req = 480 
total_req = 1914 

Dual Bus Interface Util: 
issued_total_row = 16 
issued_total_col = 1914 
Row_Bus_Util =  0.002760 
CoL_Bus_Util = 0.330114 
Either_Row_CoL_Bus_Util = 0.332356 
Issued_on_Two_Bus_Simul_Util = 0.000517 
issued_two_Eff = 0.001557 
queue_avg = 40.376854 


dram_util_bins: 0 0 0 0 0 0 0 0 0 0
dram_eff_bins: 0 0 0 0 0 0 0 0 0 0
mrqq: max=64 avg=40.3769
Memory Partition 6: 
Cache L2_bank_012:
MSHR contents
MSHR: tag=0xc0037e00, atomic=0 1 entries : 0x7ff59985f520 :  mf: uid= 11071, sid07:w30, part=6, addr=0xc0037e00, load , size=128, unknown  status = IN_PARTITION_DRAM (3385), 

Cache L2_bank_013:
MSHR contents
MSHR: tag=0xc002fe80, atomic=0 1 entries : 0x7ff599d11080 :  mf: uid= 11126, sid03:w30, part=6, addr=0xc002fe80, load , size=128, unknown  status = IN_PARTITION_L2_FILL_QUEUE (3388), 
MSHR: tag=0xc0037e80, atomic=0 1 entries : 0x7ff5996f0670 :  mf: uid= 11066, sid07:w30, part=6, addr=0xc0037e80, load , size=128, unknown  status = IN_PARTITION_DRAM (3388), 

In Dram Latency Queue (total = 0): 
DRAM[6]: 16 bks, busW=4 BL=8 CL=12, tRRD=6 tCCD=2, tRCD=12 tRAS=28 tRP=12 tRC=40
n_cmd=5798 n_nop=3864 n_act=16 n_pre=0 n_ref_event=0 n_req=480 n_rd=0 n_rd_L2_A=958 n_write=960 n_wr_bk=0 bw_util=0.6616
n_activity=4195 dram_eff=0.9144
bk0: 64a 2287i bk1: 64a 2240i bk2: 64a 2054i bk3: 64a 2041i bk4: 64a 2089i bk5: 64a 2110i bk6: 64a 1935i bk7: 64a 1919i bk8: 64a 1979i bk9: 64a 1963i bk10: 64a 1968i bk11: 64a 1957i bk12: 64a 1937i bk13: 62a 1926i bk14: 32a 4006i bk15: 32a 3941i 

------------------------------------------------------------------------

Row_Buffer_Locality = 0.966667
Row_Buffer_Locality_read = 1.000000
Row_Buffer_Locality_write = 0.933333
Bank_Level_Parallism = 13.560429
Bank_Level_Parallism_Col = 13.552694
Bank_Level_Parallism_Ready = 7.405941
write_to_read_ratio_blp_rw_average = 0.487211
GrpLevelPara = 1.000000 

BW Util details:
bwutil = 0.661607 
total_CMD = 5798 
util_bw = 3836 
Wasted_Col = 359 
Wasted_Row = 0 
Idle = 1603 

BW Util Bottlenecks: 
RCDc_limit = 0 
RCDWRc_limit = 8 
WTRc_limit = 2160 
RTWc_limit = 2225 
CCDLc_limit = 0 
rwq = 0 
CCDLc_limit_alone = 0 
WTRc_limit_alone = 2160 
RTWc_limit_alone = 2225 

Commands details: 
total_CMD = 5798 
n_nop = 3864 
Read = 0 
Write = 960 
L2_Alloc = 958 
L2_WB = 0 
n_act = 16 
n_pre = 0 
n_ref = 0 
n_req = 480 
total_req = 1918 

Dual Bus Interface Util: 
issued_total_row = 16 
issued_total_col = 1918 
Row_Bus_Util =  0.002760 
CoL_Bus_Util = 0.330804 
Either_Row_CoL_Bus_Util = 0.333563 
Issued_on_Two_Bus_Simul_Util = 0.000000 
issued_two_Eff = 0.000000 
queue_avg = 38.255604 


dram_util_bins: 0 0 0 0 0 0 0 0 0 0
dram_eff_bins: 0 0 0 0 0 0 0 0 0 0
mrqq: max=64 avg=38.2556
Memory Partition 7: 
Cache L2_bank_014:
MSHR contents
MSHR: tag=0xc001bf00, atomic=0 1 entries : 0x7ff5994ccc90 :  mf: uid= 11110, sid03:w31, part=7, addr=0xc001bf00, load , size=128, unknown  status = IN_PARTITION_DRAM (3387), 
MSHR: tag=0xc0033f00, atomic=0 1 entries : 0x7ff599c3f240 :  mf: uid= 11094, sid05:w31, part=7, addr=0xc0033f00, load , size=128, unknown  status = IN_PARTITION_DRAM (3387), 

Cache L2_bank_015:
MSHR contents
MSHR: tag=0xc002ff80, atomic=0 1 entries : 0x7ff599de1a60 :  mf: uid= 11114, sid03:w31, part=7, addr=0xc002ff80, load , size=128, unknown  status = IN_PARTITION_DRAM (3382), 
MSHR: tag=0xc0033f80, atomic=0 1 entries : 0x7ff599daa220 :  mf: uid= 11091, sid05:w31, part=7, addr=0xc0033f80, load , size=128, unknown  status = IN_PARTITION_DRAM (3388), 

In Dram Latency Queue (total = 0): 
DRAM[7]: 16 bks, busW=4 BL=8 CL=12, tRRD=6 tCCD=2, tRCD=12 tRAS=28 tRP=12 tRC=40
n_cmd=5798 n_nop=3870 n_act=16 n_pre=0 n_ref_event=0 n_req=480 n_rd=0 n_rd_L2_A=953 n_write=960 n_wr_bk=0 bw_util=0.6599
n_activity=4183 dram_eff=0.9147
bk0: 64a 2428i bk1: 64a 2382i bk2: 64a 1995i bk3: 64a 1982i bk4: 64a 1999i bk5: 64a 1986i bk6: 60a 1942i bk7: 64a 1980i bk8: 64a 1955i bk9: 64a 1941i bk10: 64a 1923i bk11: 64a 1907i bk12: 64a 1954i bk13: 61a 1946i bk14: 32a 4167i bk15: 32a 4046i 

------------------------------------------------------------------------

Row_Buffer_Locality = 0.966667
Row_Buffer_Locality_read = 1.000000
Row_Buffer_Locality_write = 0.933333
Bank_Level_Parallism = 13.557256
Bank_Level_Parallism_Col = 13.554520
Bank_Level_Parallism_Ready = 7.386304
write_to_read_ratio_blp_rw_average = 0.491504
GrpLevelPara = 1.000000 

BW Util details:
bwutil = 0.659883 
total_CMD = 5798 
util_bw = 3825 
Wasted_Col = 358 
Wasted_Row = 0 
Idle = 1615 

BW Util Bottlenecks: 
RCDc_limit = 0 
RCDWRc_limit = 17 
WTRc_limit = 2160 
RTWc_limit = 2246 
CCDLc_limit = 0 
rwq = 0 
CCDLc_limit_alone = 0 
WTRc_limit_alone = 2160 
RTWc_limit_alone = 2246 

Commands details: 
total_CMD = 5798 
n_nop = 3870 
Read = 0 
Write = 960 
L2_Alloc = 953 
L2_WB = 0 
n_act = 16 
n_pre = 0 
n_ref = 0 
n_req = 480 
total_req = 1913 

Dual Bus Interface Util: 
issued_total_row = 16 
issued_total_col = 1913 
Row_Bus_Util =  0.002760 
CoL_Bus_Util = 0.329941 
Either_Row_CoL_Bus_Util = 0.332528 
Issued_on_Two_Bus_Simul_Util = 0.000172 
issued_two_Eff = 0.000519 
queue_avg = 39.433079 


dram_util_bins: 0 0 0 0 0 0 0 0 0 0
dram_eff_bins: 0 0 0 0 0 0 0 0 0 0
mrqq: max=64 avg=39.4331

========= L2 cache stats =========
L2_cache_bank[0]: Access = 130, Miss = 121, Miss_rate = 0.931, Pending_hits = 9, Reservation_fails = 2
L2_cache_bank[1]: Access = 120, Miss = 120, Miss_rate = 1.000, Pending_hits = 0, Reservation_fails = 2
L2_cache_bank[2]: Access = 120, Miss = 120, Miss_rate = 1.000, Pending_hits = 0, Reservation_fails = 2
L2_cache_bank[3]: Access = 130, Miss = 121, Miss_rate = 0.931, Pending_hits = 9, Reservation_fails = 2
L2_cache_bank[4]: Access = 130, Miss = 121, Miss_rate = 0.931, Pending_hits = 9, Reservation_fails = 4
L2_cache_bank[5]: Access = 130, Miss = 121, Miss_rate = 0.931, Pending_hits = 9, Reservation_fails = 4
L2_cache_bank[6]: Access = 120, Miss = 120, Miss_rate = 1.000, Pending_hits = 0, Reservation_fails = 1
L2_cache_bank[7]: Access = 120, Miss = 120, Miss_rate = 1.000, Pending_hits = 0, Reservation_fails = 2
L2_cache_bank[8]: Access = 120, Miss = 120, Miss_rate = 1.000, Pending_hits = 0, Reservation_fails = 1
L2_cache_bank[9]: Access = 120, Miss = 120, Miss_rate = 1.000, Pending_hits = 0, Reservation_fails = 1
L2_cache_bank[10]: Access = 120, Miss = 120, Miss_rate = 1.000, Pending_hits = 0, Reservation_fails = 2
L2_cache_bank[11]: Access = 120, Miss = 120, Miss_rate = 1.000, Pending_hits = 0, Reservation_fails = 2
L2_cache_bank[12]: Access = 120, Miss = 120, Miss_rate = 1.000, Pending_hits = 0, Reservation_fails = 5
L2_cache_bank[13]: Access = 120, Miss = 120, Miss_rate = 1.000, Pending_hits = 0, Reservation_fails = 5
L2_cache_bank[14]: Access = 120, Miss = 120, Miss_rate = 1.000, Pending_hits = 0, Reservation_fails = 0
L2_cache_bank[15]: Access = 120, Miss = 120, Miss_rate = 1.000, Pending_hits = 0, Reservation_fails = 0
L2_total_cache_accesses = 1960
L2_total_cache_misses = 1924
L2_total_cache_miss_rate = 0.9816
L2_total_cache_pending_hits = 36
L2_total_cache_reservation_fails = 35
L2_total_cache_breakdown:
	L2_cache_stats_breakdown[GLOBAL_ACC_R][HIT] = 0
	L2_cache_stats_breakdown[GLOBAL_ACC_R][HIT_RESERVED] = 0
	L2_cache_stats_breakdown[GLOBAL_ACC_R][MISS] = 0
	L2_cache_stats_breakdown[GLOBAL_ACC_R][RESERVATION_FAIL] = 0
	L2_cache_stats_breakdown[GLOBAL_ACC_R][SECTOR_MISS] = 0
	L2_cache_stats_breakdown[GLOBAL_ACC_R][MSHR_HIT] = 0
	L2_cache_stats_breakdown[LOCAL_ACC_R][HIT] = 0
	L2_cache_stats_breakdown[LOCAL_ACC_R][HIT_RESERVED] = 0
	L2_cache_stats_breakdown[LOCAL_ACC_R][MISS] = 0
	L2_cache_stats_breakdown[LOCAL_ACC_R][RESERVATION_FAIL] = 0
	L2_cache_stats_breakdown[LOCAL_ACC_R][SECTOR_MISS] = 0
	L2_cache_stats_breakdown[LOCAL_ACC_R][MSHR_HIT] = 0
	L2_cache_stats_breakdown[CONST_ACC_R][HIT] = 0
	L2_cache_stats_breakdown[CONST_ACC_R][HIT_RESERVED] = 9
	L2_cache_stats_breakdown[CONST_ACC_R][MISS] = 1
	L2_cache_stats_breakdown[CONST_ACC_R][RESERVATION_FAIL] = 0
	L2_cache_stats_breakdown[CONST_ACC_R][SECTOR_MISS] = 0
	L2_cache_stats_breakdown[CONST_ACC_R][MSHR_HIT] = 9
	L2_cache_stats_breakdown[TEXTURE_ACC_R][HIT] = 0
	L2_cache_stats_breakdown[TEXTURE_ACC_R][HIT_RESERVED] = 0
	L2_cache_stats_breakdown[TEXTURE_ACC_R][MISS] = 0
	L2_cache_stats_breakdown[TEXTURE_ACC_R][RESERVATION_FAIL] = 0
	L2_cache_stats_breakdown[TEXTURE_ACC_R][SECTOR_MISS] = 0
	L2_cache_stats_breakdown[TEXTURE_ACC_R][MSHR_HIT] = 0
	L2_cache_stats_breakdown[GLOBAL_ACC_W][HIT] = 0
	L2_cache_stats_breakdown[GLOBAL_ACC_W][HIT_RESERVED] = 0
	L2_cache_stats_breakdown[GLOBAL_ACC_W][MISS] = 1920
	L2_cache_stats_breakdown[GLOBAL_ACC_W][RESERVATION_FAIL] = 35
	L2_cache_stats_breakdown[GLOBAL_ACC_W][SECTOR_MISS] = 0
	L2_cache_stats_breakdown[GLOBAL_ACC_W][MSHR_HIT] = 0
	L2_cache_stats_breakdown[LOCAL_ACC_W][HIT] = 0
	L2_cache_stats_breakdown[LOCAL_ACC_W][HIT_RESERVED] = 0
	L2_cache_stats_breakdown[LOCAL_ACC_W][MISS] = 0
	L2_cache_stats_breakdown[LOCAL_ACC_W][RESERVATION_FAIL] = 0
	L2_cache_stats_breakdown[LOCAL_ACC_W][SECTOR_MISS] = 0
	L2_cache_stats_breakdown[LOCAL_ACC_W][MSHR_HIT] = 0
	L2_cache_stats_breakdown[L1_WRBK_ACC][HIT] = 0
	L2_cache_stats_breakdown[L1_WRBK_ACC][HIT_RESERVED] = 0
	L2_cache_stats_breakdown[L1_WRBK_ACC][MISS] = 0
[...]
Issued_on_Two_Bus_Simul_Util = 0.000014 
issued_two_Eff = 0.000509 
queue_avg = 3.295024 


dram_util_bins: 0 0 0 0 0 0 0 0 0 0
dram_eff_bins: 0 0 0 0 0 0 0 0 0 0
mrqq: max=64 avg=3.29502
Memory Partition 2: 
Cache L2_bank_004:
MSHR contents

Cache L2_bank_005:
MSHR contents

In Dram Latency Queue (total = 0): 
DRAM[2]: 16 bks, busW=4 BL=8 CL=12, tRRD=6 tCCD=2, tRCD=12 tRAS=28 tRP=12 tRC=40
n_cmd=72489 n_nop=70531 n_act=19 n_pre=3 n_ref_event=0 n_req=488 n_rd=8 n_rd_L2_A=968 n_write=964 n_wr_bk=0 bw_util=0.05353
n_activity=4336 dram_eff=0.8948
bk0: 68a 68613i bk1: 68a 68774i bk2: 64a 68650i bk3: 64a 68638i bk4: 64a 68656i bk5: 64a 68643i bk6: 64a 68725i bk7: 64a 68672i bk8: 64a 68719i bk9: 64a 68682i bk10: 64a 68749i bk11: 64a 68724i bk12: 64a 68611i bk13: 64a 68594i bk14: 36a 70364i bk15: 36a 70255i 

------------------------------------------------------------------------

Row_Buffer_Locality = 0.961066
Row_Buffer_Locality_read = 0.991803
Row_Buffer_Locality_write = 0.930328
Bank_Level_Parallism = 13.627194
Bank_Level_Parallism_Col = 13.617420
Bank_Level_Parallism_Ready = 7.425258
write_to_read_ratio_blp_rw_average = 0.487287
GrpLevelPara = 1.000000 

BW Util details:
bwutil = 0.053525 
total_CMD = 72489 
util_bw = 3880 
Wasted_Col = 398 
Wasted_Row = 0 
Idle = 68211 

BW Util Bottlenecks: 
RCDc_limit = 12 
RCDWRc_limit = 24 
WTRc_limit = 2178 
RTWc_limit = 2268 
CCDLc_limit = 0 
rwq = 0 
CCDLc_limit_alone = 0 
WTRc_limit_alone = 2178 
RTWc_limit_alone = 2268 

Commands details: 
total_CMD = 72489 
n_nop = 70531 
Read = 8 
Write = 964 
L2_Alloc = 968 
L2_WB = 0 
n_act = 19 
n_pre = 3 
n_ref = 0 
n_req = 488 
total_req = 1940 

Dual Bus Interface Util: 
issued_total_row = 22 
issued_total_col = 1940 
Row_Bus_Util =  0.000303 
CoL_Bus_Util = 0.026763 
Either_Row_CoL_Bus_Util = 0.027011 
Issued_on_Two_Bus_Simul_Util = 0.000055 
issued_two_Eff = 0.002043 
queue_avg = 3.281036 


dram_util_bins: 0 0 0 0 0 0 0 0 0 0
dram_eff_bins: 0 0 0 0 0 0 0 0 0 0
mrqq: max=64 avg=3.28104
Memory Partition 3: 
Cache L2_bank_006:
MSHR contents

Cache L2_bank_007:
MSHR contents

In Dram Latency Queue (total = 0): 
DRAM[3]: 16 bks, busW=4 BL=8 CL=12, tRRD=6 tCCD=2, tRCD=12 tRAS=28 tRP=12 tRC=40
n_cmd=72489 n_nop=70539 n_act=16 n_pre=0 n_ref_event=0 n_req=489 n_rd=0 n_rd_L2_A=968 n_write=967 n_wr_bk=0 bw_util=0.05339
n_activity=4322 dram_eff=0.8954
bk0: 64a 68787i bk1: 64a 68772i bk2: 64a 68641i bk3: 64a 68631i bk4: 64a 68657i bk5: 64a 68643i bk6: 64a 68620i bk7: 64a 68609i bk8: 64a 68678i bk9: 64a 68630i bk10: 64a 68600i bk11: 64a 68584i bk12: 64a 68730i bk13: 64a 68714i bk14: 36a 70632i bk15: 36a 70687i 

------------------------------------------------------------------------

Row_Buffer_Locality = 0.967280
Row_Buffer_Locality_read = 1.000000
Row_Buffer_Locality_write = 0.935223
Bank_Level_Parallism = 13.575665
Bank_Level_Parallism_Col = 13.570857
Bank_Level_Parallism_Ready = 7.440599
write_to_read_ratio_blp_rw_average = 0.486520
GrpLevelPara = 1.000000 

BW Util details:
bwutil = 0.053387 
total_CMD = 72489 
util_bw = 3870 
Wasted_Col = 387 
Wasted_Row = 0 
Idle = 68232 

BW Util Bottlenecks: 
RCDc_limit = 0 
RCDWRc_limit = 12 
WTRc_limit = 2178 
RTWc_limit = 2251 
CCDLc_limit = 0 
rwq = 0 
CCDLc_limit_alone = 0 
WTRc_limit_alone = 2178 
RTWc_limit_alone = 2251 

Commands details: 
total_CMD = 72489 
n_nop = 70539 
Read = 0 
Write = 967 
L2_Alloc = 968 
L2_WB = 0 
n_act = 16 
n_pre = 0 
n_ref = 0 
n_req = 489 
total_req = 1935 

Dual Bus Interface Util: 
issued_total_row = 16 
issued_total_col = 1935 
Row_Bus_Util =  0.000221 
CoL_Bus_Util = 0.026694 
Either_Row_CoL_Bus_Util = 0.026901 
Issued_on_Two_Bus_Simul_Util = 0.000014 
issued_two_Eff = 0.000513 
queue_avg = 3.262978 


dram_util_bins: 0 0 0 0 0 0 0 0 0 0
dram_eff_bins: 0 0 0 0 0 0 0 0 0 0
mrqq: max=64 avg=3.26298
Memory Partition 4: 
Cache L2_bank_008:
MSHR contents

Cache L2_bank_009:
MSHR contents

In Dram Latency Queue (total = 0): 
DRAM[4]: 16 bks, busW=4 BL=8 CL=12, tRRD=6 tCCD=2, tRCD=12 tRAS=28 tRP=12 tRC=40
n_cmd=72489 n_nop=70540 n_act=16 n_pre=0 n_ref_event=0 n_req=488 n_rd=0 n_rd_L2_A=968 n_write=966 n_wr_bk=0 bw_util=0.05336
n_activity=4324 dram_eff=0.8945
bk0: 64a 69014i bk1: 64a 68992i bk2: 64a 68784i bk3: 64a 68773i bk4: 64a 68781i bk5: 64a 68767i bk6: 64a 68649i bk7: 64a 68638i bk8: 64a 68861i bk9: 64a 68800i bk10: 64a 69005i bk11: 64a 68958i bk12: 64a 68783i bk13: 64a 68759i bk14: 36a 70902i bk15: 36a 70994i 

------------------------------------------------------------------------

Row_Buffer_Locality = 0.967213
Row_Buffer_Locality_read = 1.000000
Row_Buffer_Locality_write = 0.934959
Bank_Level_Parallism = 12.890456
Bank_Level_Parallism_Col = 12.882906
Bank_Level_Parallism_Ready = 7.101345
write_to_read_ratio_blp_rw_average = 0.483698
GrpLevelPara = 1.000000 

BW Util details:
bwutil = 0.053360 
total_CMD = 72489 
util_bw = 3868 
Wasted_Col = 395 
Wasted_Row = 0 
Idle = 68226 

BW Util Bottlenecks: 
RCDc_limit = 0 
RCDWRc_limit = 25 
WTRc_limit = 2178 
RTWc_limit = 2182 
CCDLc_limit = 0 
rwq = 0 
CCDLc_limit_alone = 0 
WTRc_limit_alone = 2178 
RTWc_limit_alone = 2182 

Commands details: 
total_CMD = 72489 
n_nop = 70540 
Read = 0 
Write = 966 
L2_Alloc = 968 
L2_WB = 0 
n_act = 16 
n_pre = 0 
n_ref = 0 
n_req = 488 
total_req = 1934 

Dual Bus Interface Util: 
issued_total_row = 16 
issued_total_col = 1934 
Row_Bus_Util =  0.000221 
CoL_Bus_Util = 0.026680 
Either_Row_CoL_Bus_Util = 0.026887 
Issued_on_Two_Bus_Simul_Util = 0.000014 
issued_two_Eff = 0.000513 
queue_avg = 3.266923 


dram_util_bins: 0 0 0 0 0 0 0 0 0 0
dram_eff_bins: 0 0 0 0 0 0 0 0 0 0
mrqq: max=64 avg=3.26692
Memory Partition 5: 
Cache L2_bank_010:
MSHR contents

Cache L2_bank_011:
MSHR contents

In Dram Latency Queue (total = 0): 
DRAM[5]: 16 bks, busW=4 BL=8 CL=12, tRRD=6 tCCD=2, tRCD=12 tRAS=28 tRP=12 tRC=40
n_cmd=72489 n_nop=70532 n_act=18 n_pre=2 n_ref_event=0 n_req=488 n_rd=8 n_rd_L2_A=968 n_write=964 n_wr_bk=0 bw_util=0.05353
n_activity=4404 dram_eff=0.881
bk0: 68a 68714i bk1: 68a 68691i bk2: 64a 68781i bk3: 64a 68760i bk4: 64a 68681i bk5: 64a 68668i bk6: 64a 68646i bk7: 64a 68633i bk8: 64a 68672i bk9: 64a 68635i bk10: 64a 68662i bk11: 64a 68648i bk12: 64a 68811i bk13: 64a 68770i bk14: 36a 70414i bk15: 36a 70363i 

------------------------------------------------------------------------

Row_Buffer_Locality = 0.963115
Row_Buffer_Locality_read = 0.991803
Row_Buffer_Locality_write = 0.934426
Bank_Level_Parallism = 13.369761
Bank_Level_Parallism_Col = 13.442218
Bank_Level_Parallism_Ready = 7.380021
write_to_read_ratio_blp_rw_average = 0.483736
GrpLevelPara = 1.000000 

BW Util details:
bwutil = 0.053525 
total_CMD = 72489 
util_bw = 3880 
Wasted_Col = 422 
Wasted_Row = 24 
Idle = 68163 

BW Util Bottlenecks: 
RCDc_limit = 24 
RCDWRc_limit = 20 
WTRc_limit = 2214 
RTWc_limit = 2250 
CCDLc_limit = 0 
rwq = 0 
CCDLc_limit_alone = 0 
WTRc_limit_alone = 2214 
RTWc_limit_alone = 2250 

Commands details: 
total_CMD = 72489 
n_nop = 70532 
Read = 8 
Write = 964 
L2_Alloc = 968 
L2_WB = 0 
n_act = 18 
n_pre = 2 
n_ref = 0 
n_req = 488 
total_req = 1940 

Dual Bus Interface Util: 
issued_total_row = 20 
issued_total_col = 1940 
Row_Bus_Util =  0.000276 
CoL_Bus_Util = 0.026763 
Either_Row_CoL_Bus_Util = 0.026997 
Issued_on_Two_Bus_Simul_Util = 0.000041 
issued_two_Eff = 0.001533 
queue_avg = 3.229690 


dram_util_bins: 0 0 0 0 0 0 0 0 0 0
dram_eff_bins: 0 0 0 0 0 0 0 0 0 0
mrqq: max=64 avg=3.22969
Memory Partition 6: 
Cache L2_bank_012:
MSHR contents

Cache L2_bank_013:
MSHR contents

In Dram Latency Queue (total = 0): 
DRAM[6]: 16 bks, busW=4 BL=8 CL=12, tRRD=6 tCCD=2, tRCD=12 tRAS=28 tRP=12 tRC=40
n_cmd=72489 n_nop=70528 n_act=18 n_pre=2 n_ref_event=0 n_req=489 n_rd=8 n_rd_L2_A=968 n_write=965 n_wr_bk=0 bw_util=0.05355
n_activity=4404 dram_eff=0.8815
bk0: 68a 68948i bk1: 68a 68900i bk2: 64a 68744i bk3: 64a 68732i bk4: 64a 68780i bk5: 64a 68801i bk6: 64a 68626i bk7: 64a 68610i bk8: 64a 68670i bk9: 64a 68654i bk10: 64a 68659i bk11: 64a 68648i bk12: 64a 68628i bk13: 64a 68615i bk14: 36a 70682i bk15: 36a 70613i 

------------------------------------------------------------------------

Row_Buffer_Locality = 0.963190
Row_Buffer_Locality_read = 0.991803
Row_Buffer_Locality_write = 0.934694
Bank_Level_Parallism = 13.248024
Bank_Level_Parallism_Col = 13.314854
Bank_Level_Parallism_Ready = 7.330072
write_to_read_ratio_blp_rw_average = 0.480085
GrpLevelPara = 1.000000 

BW Util details:
bwutil = 0.053553 
total_CMD = 72489 
util_bw = 3882 
Wasted_Col = 405 
Wasted_Row = 24 
Idle = 68178 

BW Util Bottlenecks: 
RCDc_limit = 24 
RCDWRc_limit = 8 
WTRc_limit = 2178 
RTWc_limit = 2229 
CCDLc_limit = 0 
rwq = 0 
CCDLc_limit_alone = 0 
WTRc_limit_alone = 2178 
RTWc_limit_alone = 2229 

Commands details: 
total_CMD = 72489 
n_nop = 70528 
Read = 8 
Write = 965 
L2_Alloc = 968 
L2_WB = 0 
n_act = 18 
n_pre = 2 
n_ref = 0 
n_req = 489 
total_req = 1941 

Dual Bus Interface Util: 
issued_total_row = 20 
issued_total_col = 1941 
Row_Bus_Util =  0.000276 
CoL_Bus_Util = 0.026776 
Either_Row_CoL_Bus_Util = 0.027052 
Issued_on_Two_Bus_Simul_Util = 0.000000 
issued_two_Eff = 0.000000 
queue_avg = 3.059857 


dram_util_bins: 0 0 0 0 0 0 0 0 0 0
dram_eff_bins: 0 0 0 0 0 0 0 0 0 0
mrqq: max=64 avg=3.05986
Memory Partition 7: 
Cache L2_bank_014:
MSHR contents

Cache L2_bank_015:
MSHR contents

In Dram Latency Queue (total = 0): 
DRAM[7]: 16 bks, busW=4 BL=8 CL=12, tRRD=6 tCCD=2, tRCD=12 tRAS=28 tRP=12 tRC=40
n_cmd=72489 n_nop=70529 n_act=17 n_pre=1 n_ref_event=0 n_req=494 n_rd=4 n_rd_L2_A=968 n_write=971 n_wr_bk=0 bw_util=0.05361
n_activity=4381 dram_eff=0.887
bk0: 68a 69089i bk1: 64a 69072i bk2: 64a 68685i bk3: 64a 68672i bk4: 64a 68689i bk5: 64a 68676i bk6: 64a 68619i bk7: 64a 68670i bk8: 64a 68646i bk9: 64a 68632i bk10: 64a 68615i bk11: 64a 68599i bk12: 64a 68646i bk13: 64a 68633i bk14: 36a 70844i bk15: 36a 70711i 

------------------------------------------------------------------------

Row_Buffer_Locality = 0.965587
Row_Buffer_Locality_read = 0.995885
Row_Buffer_Locality_write = 0.936255
Bank_Level_Parallism = 13.265469
Bank_Level_Parallism_Col = 13.300070
Bank_Level_Parallism_Ready = 7.289243
write_to_read_ratio_blp_rw_average = 0.486875
GrpLevelPara = 1.000000 

BW Util details:
bwutil = 0.053608 
total_CMD = 72489 
util_bw = 3886 
Wasted_Col = 396 
Wasted_Row = 12 
Idle = 68195 

BW Util Bottlenecks: 
RCDc_limit = 12 
RCDWRc_limit = 17 
WTRc_limit = 2178 
RTWc_limit = 2254 
CCDLc_limit = 0 
rwq = 0 
CCDLc_limit_alone = 0 
WTRc_limit_alone = 2178 
RTWc_limit_alone = 2254 

Commands details: 
total_CMD = 72489 
n_nop = 70529 
Read = 4 
Write = 971 
L2_Alloc = 968 
L2_WB = 0 
n_act = 17 
n_pre = 1 
n_ref = 0 
n_req = 494 
total_req = 1943 

Dual Bus Interface Util: 
issued_total_row = 18 
issued_total_col = 1943 
Row_Bus_Util =  0.000248 
CoL_Bus_Util = 0.026804 
Either_Row_CoL_Bus_Util = 0.027039 
Issued_on_Two_Bus_Simul_Util = 0.000014 
issued_two_Eff = 0.000510 
queue_avg = 3.154368 


dram_util_bins: 0 0 0 0 0 0 0 0 0 0
dram_eff_bins: 0 0 0 0 0 0 0 0 0 0
mrqq: max=64 avg=3.15437

========= L2 cache stats =========
L2_cache_bank[0]: Access = 656, Miss = 123, Miss_rate = 0.188, Pending_hits = 33, Reservation_fails = 2
L2_cache_bank[1]: Access = 636, Miss = 122, Miss_rate = 0.192, Pending_hits = 22, Reservation_fails = 2
L2_cache_bank[2]: Access = 636, Miss = 122, Miss_rate = 0.192, Pending_hits = 24, Reservation_fails = 2
L2_cache_bank[3]: Access = 636, Miss = 122, Miss_rate = 0.192, Pending_hits = 10, Reservation_fails = 2
L2_cache_bank[4]: Access = 626, Miss = 122, Miss_rate = 0.195, Pending_hits = 10, Reservation_fails = 4
L2_cache_bank[5]: Access = 626, Miss = 122, Miss_rate = 0.195, Pending_hits = 10, Reservation_fails = 4
L2_cache_bank[6]: Access = 616, Miss = 121, Miss_rate = 0.196, Pending_hits = 2, Reservation_fails = 1
L2_cache_bank[7]: Access = 616, Miss = 121, Miss_rate = 0.196, Pending_hits = 3, Reservation_fails = 2
L2_cache_bank[8]: Access = 616, Miss = 121, Miss_rate = 0.196, Pending_hits = 1, Reservation_fails = 1
L2_cache_bank[9]: Access = 616, Miss = 121, Miss_rate = 0.196, Pending_hits = 3, Reservation_fails = 1
L2_cache_bank[10]: Access = 626, Miss = 122, Miss_rate = 0.195, Pending_hits = 9, Reservation_fails = 2
L2_cache_bank[11]: Access = 626, Miss = 122, Miss_rate = 0.195, Pending_hits = 11, Reservation_fails = 2
L2_cache_bank[12]: Access = 636, Miss = 122, Miss_rate = 0.192, Pending_hits = 10, Reservation_fails = 5
L2_cache_bank[13]: Access = 626, Miss = 122, Miss_rate = 0.195, Pending_hits = 11, Reservation_fails = 5
L2_cache_bank[14]: Access = 626, Miss = 122, Miss_rate = 0.195, Pending_hits = 9, Reservation_fails = 0
L2_cache_bank[15]: Access = 616, Miss = 121, Miss_rate = 0.196, Pending_hits = 9, Reservation_fails = 0
L2_total_cache_accesses = 10036
L2_total_cache_misses = 1948
L2_total_cache_miss_rate = 0.1941
L2_total_cache_pending_hits = 177
L2_total_cache_reservation_fails = 35
L2_total_cache_breakdown:
	L2_cache_stats_breakdown[GLOBAL_ACC_R][HIT] = 5120
	L2_cache_stats_breakdown[GLOBAL_ACC_R][HIT_RESERVED] = 0
	L2_cache_stats_breakdown[GLOBAL_ACC_R][MISS] = 0
	L2_cache_stats_breakdown[GLOBAL_ACC_R][RESERVATION_FAIL] = 0
	L2_cache_stats_breakdown[GLOBAL_ACC_R][SECTOR_MISS] = 0
	L2_cache_stats_breakdown[GLOBAL_ACC_R][MSHR_HIT] = 0
	L2_cache_stats_breakdown[LOCAL_ACC_R][HIT] = 0
	L2_cache_stats_breakdown[LOCAL_ACC_R][HIT_RESERVED] = 0
	L2_cache_stats_breakdown[LOCAL_ACC_R][MISS] = 0
	L2_cache_stats_breakdown[LOCAL_ACC_R][RESERVATION_FAIL] = 0
	L2_cache_stats_breakdown[LOCAL_ACC_R][SECTOR_MISS] = 0
	L2_cache_stats_breakdown[LOCAL_ACC_R][MSHR_HIT] = 0
	L2_cache_stats_breakdown[CONST_ACC_R][HIT] = 10
	L2_cache_stats_breakdown[CONST_ACC_R][HIT_RESERVED] = 9
	L2_cache_stats_breakdown[CONST_ACC_R][MISS] = 1
	L2_cache_stats_breakdown[CONST_ACC_R][RESERVATION_FAIL] = 0
	L2_cache_stats_breakdown[CONST_ACC_R][SECTOR_MISS] = 0
	L2_cache_stats_breakdown[CONST_ACC_R][MSHR_HIT] = 9
	L2_cache_stats_breakdown[TEXTURE_ACC_R][HIT] = 0
	L2_cache_stats_breakdown[TEXTURE_ACC_R][HIT_RESERVED] = 0
	L2_cache_stats_breakdown[TEXTURE_ACC_R][MISS] = 0
	L2_cache_stats_breakdown[TEXTURE_ACC_R][RESERVATION_FAIL] = 0
	L2_cache_stats_breakdown[TEXTURE_ACC_R][SECTOR_MISS] = 0
	L2_cache_stats_breakdown[TEXTURE_ACC_R][MSHR_HIT] = 0
	L2_cache_stats_breakdown[GLOBAL_ACC_W][HIT] = 2761
	L2_cache_stats_breakdown[GLOBAL_ACC_W][HIT_RESERVED] = 39
	L2_cache_stats_breakdown[GLOBAL_ACC_W][MISS] = 1936
	L2_cache_stats_breakdown[GLOBAL_ACC_W][RESERVATION_FAIL] = 35
	L2_cache_stats_breakdown[GLOBAL_ACC_W][SECTOR_MISS] = 0
	L2_cache_stats_breakdown[GLOBAL_ACC_W][MSHR_HIT] = 0
	L2_cache_stats_breakdown[LOCAL_ACC_W][HIT] = 0
	L2_cache_stats_breakdown[LOCAL_ACC_W][HIT_RESERVED] = 0
	L2_cache_stats_breakdown[LOCAL_ACC_W][MISS] = 0
	L2_cache_stats_breakdown[LOCAL_ACC_W][RESERVATION_FAIL] = 0
	L2_cache_stats_breakdown[LOCAL_ACC_W][SECTOR_MISS] = 0
	L2_cache_stats_breakdown[LOCAL_ACC_W][MSHR_HIT] = 0
	L2_cache_stats_breakdown[L1_WRBK_ACC][HIT] = 0
	L2_cache_stats_breakdown[L1_WRBK_ACC][HIT_RESERVED] = 0
	L2_cache_stats_breakdown[L1_WRBK_ACC][MISS] = 0
	L2_cache_stats_breakdown[L1_WRBK_ACC][RESERVATION_FAIL] = 0
	L2_cache_stats_breakdown[L1_WRBK_ACC][SECTOR_MISS] = 0
	L2_cache_stats_breakdown[L1_WRBK_ACC][MSHR_HIT] = 0
	L2_cache_stats_breakdown[L2_WRBK_ACC][HIT] = 0
	L2_cache_stats_breakdown[L2_WRBK_ACC][HIT_RESERVED] = 0
	L2_cache_stats_breakdown[L2_WRBK_ACC][MISS] = 0
	L2_cache_stats_breakdown[L2_WRBK_ACC][RESERVATION_FAIL] = 0
	L2_cache_stats_breakdown[L2_WRBK_ACC][SECTOR_MISS] = 0
	L2_cache_stats_breakdown[L2_WRBK_ACC][MSHR_HIT] = 0
	L2_cache_stats_breakdown[INST_ACC_R][HIT] = 20
	L2_cache_stats_breakdown[INST_ACC_R][HIT_RESERVED] = 129
	L2_cache_stats_breakdown[INST_ACC_R][MISS] = 11
	L2_cache_stats_breakdown[INST_ACC_R][RESERVATION_FAIL] = 0
	L2_cache_stats_breakdown[INST_ACC_R][SECTOR_MISS] = 0
	L2_cache_stats_breakdown[INST_ACC_R][MSHR_HIT] = 129
	L2_cache_stats_breakdown[L1_WR_ALLOC_R][HIT] = 0
	L2_cache_stats_breakdown[L1_WR_ALLOC_R][HIT_RESERVED] = 0
	L2_cache_stats_breakdown[L1_WR_ALLOC_R][MISS] = 0
	L2_cache_stats_breakdown[L1_WR_ALLOC_R][RESERVATION_FAIL] = 0
	L2_cache_stats_breakdown[L1_WR_ALLOC_R][SECTOR_MISS] = 0
	L2_cache_stats_breakdown[L1_WR_ALLOC_R][MSHR_HIT] = 0
	L2_cache_stats_breakdown[L2_WR_ALLOC_R][HIT] = 0
	L2_cache_stats_breakdown[L2_WR_ALLOC_R][HIT_RESERVED] = 0
	L2_cache_stats_breakdown[L2_WR_ALLOC_R][MISS] = 0
	L2_cache_stats_breakdown[L2_WR_ALLOC_R][RESERVATION_FAIL] = 0
	L2_cache_stats_breakdown[L2_WR_ALLOC_R][SECTOR_MISS] = 0
	L2_cache_stats_breakdown[L2_WR_ALLOC_R][MSHR_HIT] = 39
	L2_cache_stats_breakdown[GLOBAL_ACC_R][TOTAL_ACCESS] = 5120
	L2_cache_stats_breakdown[CONST_ACC_R][TOTAL_ACCESS] = 20
	L2_cache_stats_breakdown[GLOBAL_ACC_W][TOTAL_ACCESS] = 4736
	L2_cache_stats_breakdown[INST_ACC_R][TOTAL_ACCESS] = 160
L2_total_cache_reservation_fail_breakdown:
	L2_cache_stats_fail_breakdown[GLOBAL_ACC_W][MISS_QUEUE_FULL] = 35
L2_cache_data_port_util = 0.046
L2_cache_fill_port_util = 0.011

icnt_total_pkts_mem_to_simt=31196
icnt_total_pkts_simt_to_mem=28212
LD_mem_lat_dist  0 0 0 0 0 0 0 0 0 0 0 0 0 0 0 0 0 0 0 0 0 0 0 0 0 0 0
ST_mem_lat_dist  0 0 0 0 0 0 0 0 0 0 0 0 0 0 0 0 0 0 0 0 0 0 0 0 0 0 0
----------------------------Interconnect-DETAILS--------------------------------
Class 0:
Packet latency average = 30.174346
	minimum = 6.000000
	maximum = 679.000000
Network latency average = 21.373288
	minimum = 6.000000
	maximum = 653.000000
Slowest packet = 18167
Flit latency average = 19.666103
	minimum = 6.000000
	maximum = 653.000000
Slowest flit = 52156
Fragmentation average = 0.000000
	minimum = 0.000000
	maximum = 0.000000
Injected packet rate average = 0.001046
	minimum = 0.000000 (at node 36)
	maximum = 0.002360 (at node 11)
Accepted packet rate average = 0.001046
	minimum = 0.000000 (at node 36)
	maximum = 0.002360 (at node 11)
Injected flit rate average = 0.002887
	minimum = 0.000000 (at node 36)
	maximum = 0.008398 (at node 20)
Accepted flit rate average= 0.002887
	minimum = 0.000000 (at node 36)
	maximum = 0.010953 (at node 11)
Injected packet length average = 2.760897
Accepted packet length average = 2.760897
Total in-flight flits = 0 (0 measured)
====== Overall Traffic Statistics ======
====== Traffic class 0 ======
Packet latency average = 28.896956 (6 samples)
	minimum = 6.000000 (6 samples)
	maximum = 555.666667 (6 samples)
Network latency average = 22.000057 (6 samples)
	minimum = 6.000000 (6 samples)
	maximum = 542.333333 (6 samples)
Flit latency average = 21.755552 (6 samples)
	minimum = 6.000000 (6 samples)
	maximum = 539.666667 (6 samples)
Fragmentation average = 0.971450 (6 samples)
	minimum = 0.000000 (6 samples)
	maximum = 331.000000 (6 samples)
Injected packet rate average = 0.018957 (6 samples)
	minimum = 0.000000 (6 samples)
	maximum = 0.047351 (6 samples)
Accepted packet rate average = 0.018957 (6 samples)
	minimum = 0.000000 (6 samples)
	maximum = 0.047351 (6 samples)
Injected flit rate average = 0.056795 (6 samples)
	minimum = 0.000000 (6 samples)
	maximum = 0.140005 (6 samples)
Accepted flit rate average = 0.056795 (6 samples)
	minimum = 0.000000 (6 samples)
	maximum = 0.160843 (6 samples)
Injected packet size average = 2.995947 (6 samples)
Accepted packet size average = 2.995947 (6 samples)
Hops average = 1.000000 (6 samples)
----------------------------END-of-Interconnect-DETAILS-------------------------


gpgpu_simulation_time = 0 days, 0 hrs, 0 min, 56 sec (56 sec)
gpgpu_simulation_rate = 612960 (inst/sec)
gpgpu_simulation_rate = 756 (cycle/sec)
gpgpu_silicon_slowdown = 2125661x
Function    MBytes/sec  Min (sec)   Max         Average     
Copy        0.233       0.70443     0.70443     0.70443     
Mul         0.271       0.60368     0.60368     0.60368     
Add         0.349       0.70393     0.70393     0.70393     
Triad       0.349       0.70386     0.70386     0.70386     
Dot         0.003       51.44954    51.44954    51.44954    
GPGPU-Sim: *** exit detected ***
