GPGPU-Sim version 4.2.0 (build gpgpu-sim_git-commit-13c67115070dc2f0876254a790d0238073ca364a-modified_590.0) configured with AccelWattch.

----------------------------------------------------------------------------
INFO - If you only care about PTX execution, ignore this message. GPGPU-Sim supports PTX execution in modern CUDA.
If you want to run PTXPLUS (sm_1x SASS) with a modern card configuration - set the envronment variable
$PTXAS_CUDA_INSTALL_PATH to point a CUDA version compabible with your card configurations (i.e. 8+ for PASCAL, 9+ for VOLTA etc..)
For example: "export $PTXAS_CUDA_INSTALL_PATH=/usr/local/cuda-9.1"

The following text describes why:
If you are using PTXPLUS, only sm_1x is supported and it requires that the app and simulator binaries are compiled in CUDA 4.2 or less.
The simulator requires it since CUDA headers desribe struct sizes in the exec which change from gen to gen.
The apps require 4.2 because new versions of CUDA tools have dropped parsing support for generating sm_1x
When running using modern config (i.e. volta) and PTXPLUS with CUDA 4.2, the $PTXAS_CUDA_INSTALL_PATH env variable is required to get proper register usage
(and hence occupancy) using a version of CUDA that knows the register usage on the real card.

----------------------------------------------------------------------------
setup_environment succeeded
Accel-Sim [build accelsim-commit-e02c99dbadefc0b9dc95317100be2a446eec142c_modified_0.0]

        *** GPGPU-Sim Simulator Version 4.2.0  [build gpgpu-sim_git-commit-13c67115070dc2f0876254a790d0238073ca364a_modified_0.0] ***


GPGPU-Sim: Configuration options:

-save_embedded_ptx                      0 # saves ptx files embedded in binary as <n>.ptx
-keep                                   0 # keep intermediate files created by GPGPU-Sim when interfacing with external programs
-gpgpu_ptx_save_converted_ptxplus                    0 # Saved converted ptxplus to a file
-gpgpu_occupancy_sm_number                   86 # The SM number to pass to ptxas when getting register usage for computing GPU occupancy. This parameter is required in the config.
-ptx_opcode_latency_int           4,4,4,4,21 # Opcode latencies for integers <ADD,MAX,MUL,MAD,DIV,SHFL>Default 1,1,19,25,145,32
-ptx_opcode_latency_fp           4,4,4,4,39 # Opcode latencies for single precision floating points <ADD,MAX,MUL,MAD,DIV>Default 1,1,1,1,30
-ptx_opcode_latency_dp      64,64,64,64,330 # Opcode latencies for double precision floating points <ADD,MAX,MUL,MAD,DIV>Default 8,8,8,8,335
-ptx_opcode_latency_sfu                   21 # Opcode latencies for SFU instructionsDefault 8
-ptx_opcode_latency_tesnor                   64 # Opcode latencies for Tensor instructionsDefault 64
-ptx_opcode_initiation_int            2,2,2,2,2 # Opcode initiation intervals for integers <ADD,MAX,MUL,MAD,DIV,SHFL>Default 1,1,4,4,32,4
-ptx_opcode_initiation_fp            1,1,1,1,2 # Opcode initiation intervals for single precision floating points <ADD,MAX,MUL,MAD,DIV>Default 1,1,1,1,5
-ptx_opcode_initiation_dp      64,64,64,64,130 # Opcode initiation intervals for double precision floating points <ADD,MAX,MUL,MAD,DIV>Default 8,8,8,8,130
-ptx_opcode_initiation_sfu                    8 # Opcode initiation intervals for sfu instructionsDefault 8
-ptx_opcode_initiation_tensor                   64 # Opcode initiation intervals for tensor instructionsDefault 64
-cdp_latency         7200,8000,100,12000,1600 # CDP API latency <cudaStreamCreateWithFlags, cudaGetParameterBufferV2_init_perWarp, cudaGetParameterBufferV2_perKernel, cudaLaunchDeviceV2_init_perWarp, cudaLaunchDevicV2_perKernel>Default 7200,8000,100,12000,1600
-network_mode                           2 # Interconnection network mode
-inter_config_file                   mesh # Interconnection network config file
-icnt_in_buffer_limit                  512 # in_buffer_limit
-icnt_out_buffer_limit                  512 # out_buffer_limit
-icnt_subnets                           2 # subnets
-icnt_arbiter_algo                      1 # arbiter_algo
-icnt_verbose                           0 # inct_verbose
-icnt_grant_cycles                      1 # grant_cycles
-gpgpu_ptx_use_cuobjdump                    1 # Use cuobjdump to extract ptx and sass from binaries
-gpgpu_experimental_lib_support                    0 # Try to extract code from cuda libraries [Broken because of unknown cudaGetExportTable]
-checkpoint_option                      0 #  checkpointing flag (0 = no checkpoint)
-checkpoint_kernel                      1 #  checkpointing during execution of which kernel (1- 1st kernel)
-checkpoint_CTA                         0 #  checkpointing after # of CTA (< less than total CTA)
-resume_option                          0 #  resume flag (0 = no resume)
-resume_kernel                          0 #  Resume from which kernel (1= 1st kernel)
-resume_CTA                             0 #  resume from which CTA 
-checkpoint_CTA_t                       0 #  resume from which CTA 
-checkpoint_insn_Y                      0 #  resume from which CTA 
-gpgpu_ptx_convert_to_ptxplus                    0 # Convert SASS (native ISA) to ptxplus and run ptxplus
-gpgpu_ptx_force_max_capability                   86 # Force maximum compute capability
-gpgpu_ptx_inst_debug_to_file                    0 # Dump executed instructions' debug information to file
-gpgpu_ptx_inst_debug_file       inst_debug.txt # Executed instructions' debug output file
-gpgpu_ptx_inst_debug_thread_uid                    1 # Thread UID for executed instructions' debug output
-gpgpu_simd_model                       1 # 1 = post-dominator
-gpgpu_shader_core_pipeline              1536:32 # shader core pipeline config, i.e., {<nthread>:<warpsize>}
-gpgpu_tex_cache:l1  N:4:128:256,L:R:m:N:L,T:512:8,128:2 # per-shader L1 texture cache  (READ-ONLY) config  {<nsets>:<bsize>:<assoc>,<rep>:<wr>:<alloc>:<wr_alloc>,<mshr>:<N>:<merge>,<mq>:<rf>}
-gpgpu_const_cache:l1 N:128:64:8,L:R:f:N:L,S:2:64,4 # per-shader L1 constant memory cache  (READ-ONLY) config  {<nsets>:<bsize>:<assoc>,<rep>:<wr>:<alloc>:<wr_alloc>,<mshr>:<N>:<merge>,<mq>} 
-gpgpu_cache:il1     N:64:128:16,L:R:f:N:L,S:2:48,4 # shader L1 instruction cache config  {<nsets>:<bsize>:<assoc>,<rep>:<wr>:<alloc>:<wr_alloc>,<mshr>:<N>:<merge>,<mq>} 
-gpgpu_cache:dl1     S:4:128:256,L:T:m:L:L,A:384:48,16:0,32 # per-shader L1 data cache config  {<nsets>:<bsize>:<assoc>,<rep>:<wr>:<alloc>:<wr_alloc>,<mshr>:<N>:<merge>,<mq> | none}
-gpgpu_l1_cache_write_ratio                   25 # L1D write ratio
-gpgpu_l1_banks                         4 # The number of L1 cache banks
-gpgpu_l1_banks_byte_interleaving                   32 # l1 banks byte interleaving granularity
-gpgpu_l1_banks_hashing_function                    0 # l1 banks hashing function
-gpgpu_l1_latency                      39 # L1 Hit Latency
-gpgpu_smem_latency                    29 # smem Latency
-gpgpu_cache:dl1PrefL1                 none # per-shader L1 data cache config  {<nsets>:<bsize>:<assoc>,<rep>:<wr>:<alloc>:<wr_alloc>,<mshr>:<N>:<merge>,<mq> | none}
-gpgpu_cache:dl1PrefShared                 none # per-shader L1 data cache config  {<nsets>:<bsize>:<assoc>,<rep>:<wr>:<alloc>:<wr_alloc>,<mshr>:<N>:<merge>,<mq> | none}
-gpgpu_gmem_skip_L1D                    0 # global memory access skip L1D cache (implements -Xptxas -dlcm=cg, default=no skip)
-gpgpu_perfect_mem                      0 # enable perfect memory mode (no cache miss)
-n_regfile_gating_group                    4 # group of lanes that should be read/written together)
-gpgpu_clock_gated_reg_file                    0 # enable clock gated reg file for power calculations
-gpgpu_clock_gated_lanes                    0 # enable clock gated lanes for power calculations
-gpgpu_shader_registers                65536 # Number of registers per shader core. Limits number of concurrent CTAs. (default 8192)
-gpgpu_registers_per_block                65536 # Maximum number of registers per CTA. (default 8192)
-gpgpu_ignore_resources_limitation                    0 # gpgpu_ignore_resources_limitation (default 0)
-gpgpu_shader_cta                      32 # Maximum number of concurrent CTAs in shader (default 32)
-gpgpu_num_cta_barriers                   16 # Maximum number of named barriers per CTA (default 16)
-gpgpu_n_clusters                      84 # number of processing clusters
-gpgpu_n_cores_per_cluster                    1 # number of simd cores per cluster
-gpgpu_n_cluster_ejection_buffer_size                   32 # number of packets in ejection buffer
-gpgpu_n_ldst_response_buffer_size                    2 # number of response packets in ld/st unit ejection buffer
-gpgpu_shmem_per_block                49152 # Size of shared memory per thread block or CTA (default 48kB)
-gpgpu_shmem_size                  102400 # Size of shared memory per shader core (default 16kB)
-gpgpu_shmem_option      0,8,16,32,64,100 # Option list of shared memory sizes
-gpgpu_unified_l1d_size                  128 # Size of unified data cache(L1D + shared memory) in KB
-gpgpu_adaptive_cache_config                    1 # adaptive_cache_config
-gpgpu_shmem_sizeDefault               102400 # Size of shared memory per shader core (default 16kB)
-gpgpu_shmem_size_PrefL1                16384 # Size of shared memory per shader core (default 16kB)
-gpgpu_shmem_size_PrefShared                16384 # Size of shared memory per shader core (default 16kB)
-gpgpu_shmem_num_banks                   32 # Number of banks in the shared memory in each shader core (default 16)
-gpgpu_shmem_limited_broadcast                    0 # Limit shared memory to do one broadcast per cycle (default on)
-gpgpu_shmem_warp_parts                    1 # Number of portions a warp is divided into for shared memory bank conflict check 
-gpgpu_mem_unit_ports                    1 # The number of memory transactions allowed per core cycle
-gpgpu_shmem_warp_parts                    1 # Number of portions a warp is divided into for shared memory bank conflict check 
-gpgpu_warpdistro_shader                   -1 # Specify which shader core to collect the warp size distribution from
-gpgpu_warp_issue_shader                    0 # Specify which shader core to collect the warp issue distribution from
-gpgpu_local_mem_map                    1 # Mapping from local memory space address to simulated GPU physical address space (default = enabled)
-gpgpu_num_reg_banks                    8 # Number of register banks (default = 8)
-gpgpu_reg_bank_use_warp_id                    0 # Use warp ID in mapping registers to banks (default = off)
-gpgpu_sub_core_model                    1 # Sub Core Volta/Pascal model (default = off)
-gpgpu_enable_specialized_operand_collector                    0 # enable_specialized_operand_collector
-gpgpu_operand_collector_num_units_sp                    4 # number of collector units (default = 4)
-gpgpu_operand_collector_num_units_dp                    0 # number of collector units (default = 0)
-gpgpu_operand_collector_num_units_sfu                    4 # number of collector units (default = 4)
-gpgpu_operand_collector_num_units_int                    0 # number of collector units (default = 0)
-gpgpu_operand_collector_num_units_tensor_core                    4 # number of collector units (default = 4)
-gpgpu_operand_collector_num_units_mem                    2 # number of collector units (default = 2)
-gpgpu_operand_collector_num_units_gen                    8 # number of collector units (default = 0)
-gpgpu_operand_collector_num_in_ports_sp                    1 # number of collector unit in ports (default = 1)
-gpgpu_operand_collector_num_in_ports_dp                    0 # number of collector unit in ports (default = 0)
-gpgpu_operand_collector_num_in_ports_sfu                    1 # number of collector unit in ports (default = 1)
-gpgpu_operand_collector_num_in_ports_int                    0 # number of collector unit in ports (default = 0)
-gpgpu_operand_collector_num_in_ports_tensor_core                    1 # number of collector unit in ports (default = 1)
-gpgpu_operand_collector_num_in_ports_mem                    1 # number of collector unit in ports (default = 1)
-gpgpu_operand_collector_num_in_ports_gen                    8 # number of collector unit in ports (default = 0)
-gpgpu_operand_collector_num_out_ports_sp                    1 # number of collector unit in ports (default = 1)
-gpgpu_operand_collector_num_out_ports_dp                    0 # number of collector unit in ports (default = 0)
-gpgpu_operand_collector_num_out_ports_sfu                    1 # number of collector unit in ports (default = 1)
-gpgpu_operand_collector_num_out_ports_int                    0 # number of collector unit in ports (default = 0)
-gpgpu_operand_collector_num_out_ports_tensor_core                    1 # number of collector unit in ports (default = 1)
-gpgpu_operand_collector_num_out_ports_mem                    1 # number of collector unit in ports (default = 1)
-gpgpu_operand_collector_num_out_ports_gen                    8 # number of collector unit in ports (default = 0)
-gpgpu_coalesce_arch                   86 # Coalescing arch (GT200 = 13, Fermi = 20)
-gpgpu_num_sched_per_core                    4 # Number of warp schedulers per core
-gpgpu_max_insn_issue_per_warp                    1 # Max number of instructions that can be issued per warp in one cycle by scheduler (either 1 or 2)
-gpgpu_dual_issue_diff_exec_units                    1 # should dual issue use two different execution unit resources (Default = 1)
-gpgpu_simt_core_sim_order                    1 # Select the simulation order of cores in a cluster (0=Fix, 1=Round-Robin)
-gpgpu_pipeline_widths 4,4,4,4,4,4,4,4,4,4,8,4,4 # Pipeline widths ID_OC_SP,ID_OC_DP,ID_OC_INT,ID_OC_SFU,ID_OC_MEM,OC_EX_SP,OC_EX_DP,OC_EX_INT,OC_EX_SFU,OC_EX_MEM,EX_WB,ID_OC_TENSOR_CORE,OC_EX_TENSOR_CORE
-gpgpu_tensor_core_avail                    1 # Tensor Core Available (default=0)
-gpgpu_num_sp_units                     4 # Number of SP units (default=1)
-gpgpu_num_dp_units                     4 # Number of DP units (default=0)
-gpgpu_num_int_units                    4 # Number of INT units (default=0)
-gpgpu_num_sfu_units                    4 # Number of SF units (default=1)
-gpgpu_num_tensor_core_units                    4 # Number of tensor_core units (default=1)
-gpgpu_num_mem_units                    1 # Number if ldst units (default=1) WARNING: not hooked up to anything
-gpgpu_scheduler                      lrr # Scheduler configuration: < lrr | gto | two_level_active > If two_level_active:<num_active_warps>:<inner_prioritization>:<outer_prioritization>For complete list of prioritization values see shader.h enum scheduler_prioritization_typeDefault: gto
-gpgpu_concurrent_kernel_sm                    0 # Support concurrent kernels on a SM (default = disabled)
-gpgpu_perfect_inst_const_cache                    1 # perfect inst and const cache mode, so all inst and const hits in the cache(default = disabled)
-gpgpu_inst_fetch_throughput                    4 # the number of fetched intruction per warp each cycle
-gpgpu_reg_file_port_throughput                    2 # the number ports of the register file
-specialized_unit_1         0,4,4,4,4,BRA # specialized unit config {<enabled>,<num_units>:<latency>:<initiation>,<ID_OC_SPEC>:<OC_EX_SPEC>,<NAME>}
-specialized_unit_2         0,4,4,4,4,BRA # specialized unit config {<enabled>,<num_units>:<latency>:<initiation>,<ID_OC_SPEC>:<OC_EX_SPEC>,<NAME>}
-specialized_unit_3         0,4,4,4,4,BRA # specialized unit config {<enabled>,<num_units>:<latency>:<initiation>,<ID_OC_SPEC>:<OC_EX_SPEC>,<NAME>}
-specialized_unit_4         0,4,4,4,4,BRA # specialized unit config {<enabled>,<num_units>:<latency>:<initiation>,<ID_OC_SPEC>:<OC_EX_SPEC>,<NAME>}
-specialized_unit_5         0,4,4,4,4,BRA # specialized unit config {<enabled>,<num_units>:<latency>:<initiation>,<ID_OC_SPEC>:<OC_EX_SPEC>,<NAME>}
-specialized_unit_6         0,4,4,4,4,BRA # specialized unit config {<enabled>,<num_units>:<latency>:<initiation>,<ID_OC_SPEC>:<OC_EX_SPEC>,<NAME>}
-specialized_unit_7         0,4,4,4,4,BRA # specialized unit config {<enabled>,<num_units>:<latency>:<initiation>,<ID_OC_SPEC>:<OC_EX_SPEC>,<NAME>}
-specialized_unit_8         0,4,4,4,4,BRA # specialized unit config {<enabled>,<num_units>:<latency>:<initiation>,<ID_OC_SPEC>:<OC_EX_SPEC>,<NAME>}
-gpgpu_perf_sim_memcpy                    1 # Fill the L2 cache on memcpy
-gpgpu_simple_dram_model                    0 # simple_dram_model with fixed latency and BW
-gpgpu_dram_scheduler                    1 # 0 = fifo, 1 = FR-FCFS (defaul)
-gpgpu_dram_partition_queues          64:64:64:64 # i2$:$2d:d2$:$2i
-l2_ideal                               0 # Use a ideal L2 cache that always hit
-gpgpu_cache:dl2     S:64:128:32,L:B:m:L:P,A:192:4,32:0,32 # unified banked L2 data cache config  {<nsets>:<bsize>:<assoc>,<rep>:<wr>:<alloc>:<wr_alloc>,<mshr>:<N>:<merge>,<mq>}
-gpgpu_cache:dl2_texture_only                    0 # L2 cache used for texture only
-gpgpu_n_mem                           12 # number of memory modules (e.g. memory controllers) in gpu
-gpgpu_n_sub_partition_per_mchannel                    2 # number of memory subpartition in each memory module
-gpgpu_n_mem_per_ctrlr                    1 # number of memory chips per memory controller
-gpgpu_memlatency_stat                   14 # track and display latency statistics 0x2 enables MC, 0x4 enables queue logs
-gpgpu_frfcfs_dram_sched_queue_size                   64 # 0 = unlimited (default); # entries per chip
-gpgpu_dram_return_queue_size                  192 # 0 = unlimited (default); # entries per chip
-gpgpu_dram_buswidth                    2 # default = 4 bytes (8 bytes per cycle at DDR)
-gpgpu_dram_burst_length                   16 # Burst length of each DRAM request (default = 4 data bus cycle)
-dram_data_command_freq_ratio                    4 # Frequency ratio between DRAM data bus and command bus (default = 2 times, i.e. DDR)
-gpgpu_dram_timing_opt nbk=16:CCD=4:RRD=12:RCD=24:RAS=55:RP=24:RC=78:CL=24:WL=8:CDLR=10:WR=24:nbkgrp=4:CCDL=6:RTPL=4 # DRAM timing parameters = {nbk:tCCD:tRRD:tRCD:tRAS:tRP:tRC:CL:WL:tCDLR:tWR:nbkgrp:tCCDL:tRTPL}
-gpgpu_l2_rop_latency                  187 # ROP queue latency (default 85)
-dram_latency                         254 # DRAM latency (default 30)
-dram_dual_bus_interface                    0 # dual_bus_interface (default = 0) 
-dram_bnk_indexing_policy                    0 # dram_bnk_indexing_policy (0 = normal indexing, 1 = Xoring with the higher bits) (Default = 0)
-dram_bnkgrp_indexing_policy                    1 # dram_bnkgrp_indexing_policy (0 = take higher bits, 1 = take lower bits) (Default = 0)
-dram_seperate_write_queue_enable                    0 # Seperate_Write_Queue_Enable
-dram_write_queue_size             32:28:16 # Write_Queue_Size
-dram_elimnate_rw_turnaround                    0 # elimnate_rw_turnaround i.e set tWTR and tRTW = 0
-icnt_flit_size                        40 # icnt_flit_size
-gpgpu_mem_addr_mapping dramid@8;00000000.00000000.00000000.00000000.0000RRRR.RRRRRRRR.RBBBCCCC.BCCSSSSS # mapping memory address to dram model {dramid@<start bit>;<memory address map>}
-gpgpu_mem_addr_test                    0 # run sweep test to check address mapping for aliased address
-gpgpu_mem_address_mask                    1 # 0 = old addressing mask, 1 = new addressing mask, 2 = new add. mask + flipped bank sel and chip sel bits
-gpgpu_memory_partition_indexing                    2 # 0 = no indexing, 1 = bitwise xoring, 2 = IPoly, 3 = custom indexing
-accelwattch_xml_file accelwattch_sass_sim.xml # AccelWattch XML file
-power_simulation_enabled                    0 # Turn on power simulator (1=On, 0=Off)
-power_per_cycle_dump                    0 # Dump detailed power output each cycle
-hw_perf_file_name            hw_perf.csv # Hardware Performance Statistics file
-hw_perf_bench_name                       # Kernel Name in Hardware Performance Statistics file
-power_simulation_mode                    0 # Switch performance counter input for power simulation (0=Sim, 1=HW, 2=HW-Sim Hybrid)
-dvfs_enabled                           0 # Turn on DVFS for power model
-aggregate_power_stats                    0 # Accumulate power across all kernels
-accelwattch_hybrid_perfsim_L1_RH                    0 # Get L1 Read Hits for Accelwattch-Hybrid from Accel-Sim
-accelwattch_hybrid_perfsim_L1_RM                    0 # Get L1 Read Misses for Accelwattch-Hybrid from Accel-Sim
-accelwattch_hybrid_perfsim_L1_WH                    0 # Get L1 Write Hits for Accelwattch-Hybrid from Accel-Sim
-accelwattch_hybrid_perfsim_L1_WM                    0 # Get L1 Write Misses for Accelwattch-Hybrid from Accel-Sim
-accelwattch_hybrid_perfsim_L2_RH                    0 # Get L2 Read Hits for Accelwattch-Hybrid from Accel-Sim
-accelwattch_hybrid_perfsim_L2_RM                    0 # Get L2 Read Misses for Accelwattch-Hybrid from Accel-Sim
-accelwattch_hybrid_perfsim_L2_WH                    0 # Get L2 Write Hits for Accelwattch-Hybrid from Accel-Sim
-accelwattch_hybrid_perfsim_L2_WM                    0 # Get L2 Write Misses for Accelwattch-Hybrid from Accel-Sim
-accelwattch_hybrid_perfsim_CC_ACC                    0 # Get Constant Cache Acesses for Accelwattch-Hybrid from Accel-Sim
-accelwattch_hybrid_perfsim_SHARED_ACC                    0 # Get Shared Memory Acesses for Accelwattch-Hybrid from Accel-Sim
-accelwattch_hybrid_perfsim_DRAM_RD                    0 # Get DRAM Reads for Accelwattch-Hybrid from Accel-Sim
-accelwattch_hybrid_perfsim_DRAM_WR                    0 # Get DRAM Writes for Accelwattch-Hybrid from Accel-Sim
-accelwattch_hybrid_perfsim_NOC                    0 # Get Interconnect Acesses for Accelwattch-Hybrid from Accel-Sim
-accelwattch_hybrid_perfsim_PIPE_DUTY                    0 # Get Pipeline Duty Cycle Acesses for Accelwattch-Hybrid from Accel-Sim
-accelwattch_hybrid_perfsim_NUM_SM_IDLE                    0 # Get Number of Idle SMs for Accelwattch-Hybrid from Accel-Sim
-accelwattch_hybrid_perfsim_CYCLES                    0 # Get Executed Cycles for Accelwattch-Hybrid from Accel-Sim
-accelwattch_hybrid_perfsim_VOLTAGE                    0 # Get Chip Voltage for Accelwattch-Hybrid from Accel-Sim
-power_trace_enabled                    0 # produce a file for the power trace (1=On, 0=Off)
-power_trace_zlevel                     6 # Compression level of the power trace output log (0=no comp, 9=highest)
-steady_power_levels_enabled                    0 # produce a file for the steady power levels (1=On, 0=Off)
-steady_state_definition                  8:4 # allowed deviation:number of samples
-gpgpu_max_cycle                        0 # terminates gpu simulation early (0 = no limit)
-gpgpu_max_insn                         0 # terminates gpu simulation early (0 = no limit)
-gpgpu_max_cta                          0 # terminates gpu simulation early (0 = no limit)
-gpgpu_max_completed_cta                    0 # terminates gpu simulation early (0 = no limit)
-gpgpu_runtime_stat                   500 # display runtime statistics such as dram utilization {<freq>:<flag>}
-liveness_message_freq                    1 # Minimum number of seconds between simulation liveness messages (0 = always print)
-gpgpu_compute_capability_major                    8 # Major compute capability version number
-gpgpu_compute_capability_minor                    6 # Minor compute capability version number
-gpgpu_flush_l1_cache                    1 # Flush L1 cache at the end of each kernel call
-gpgpu_flush_l2_cache                    0 # Flush L2 cache at the end of each kernel call
-gpgpu_deadlock_detect                    1 # Stop the simulation at deadlock (1=on (default), 0=off)
-gpgpu_ptx_instruction_classification                    0 # if enabled will classify ptx instruction types per kernel (Max 255 kernels now)
-gpgpu_ptx_sim_mode                     0 # Select between Performance (default) or Functional simulation (1)
-gpgpu_clock_domains 1410:1410:1410:4000.0 # Clock Domain Frequencies in MhZ {<Core Clock>:<ICNT Clock>:<L2 Clock>:<DRAM Clock>}
-gpgpu_max_concurrent_kernel                  128 # maximum kernels that can run concurrently on GPU, set this value according to max resident grids for your compute capability
-gpgpu_cflog_interval                    0 # Interval between each snapshot in control flow logger
-visualizer_enabled                     0 # Turn on visualizer output (1=On, 0=Off)
-visualizer_outputfile                 NULL # Specifies the output log file for visualizer
-visualizer_zlevel                      6 # Compression level of the visualizer output log (0=no comp, 9=highest)
-gpgpu_stack_size_limit                 1024 # GPU thread stack size
-gpgpu_heap_size_limit              8388608 # GPU malloc heap size 
-gpgpu_runtime_sync_depth_limit                    2 # GPU device runtime synchronize depth
-gpgpu_runtime_pending_launch_count_limit                 2048 # GPU device runtime pending launch count
-trace_enabled                          0 # Turn on traces
-trace_components                    none # comma seperated list of traces to enable. Complete list found in trace_streams.tup. Default none
-trace_sampling_core                    0 # The core which is printed using CORE_DPRINTF. Default 0
-trace_sampling_memory_partition                   -1 # The memory partition which is printed using MEMPART_DPRINTF. Default -1 (i.e. all)
-enable_ptx_file_line_stats                    1 # Turn on PTX source line statistic profiling. (1 = On)
-ptx_line_stats_filename gpgpu_inst_stats.txt # Output file for PTX source line statistics.
-gpgpu_kernel_launch_latency                 5000 # Kernel launch latency in cycles. Default: 0
-gpgpu_cdp_enabled                      0 # Turn on CDP
-gpgpu_TB_launch_latency                    0 # thread block launch latency in cycles. Default: 0
-trace               /benchrun/accelsim-sass/vectoradd/sm86_a6000/input-1000000/results/traces/kernelslist.g # traces kernel filetraces kernel file directory
-trace_opcode_latency_initiation_int                  4,1 # Opcode latencies and initiation for integers in trace driven mode <latency,initiation>
-trace_opcode_latency_initiation_sp                  4,1 # Opcode latencies and initiation for sp in trace driven mode <latency,initiation>
-trace_opcode_latency_initiation_dp                  4,1 # Opcode latencies and initiation for dp in trace driven mode <latency,initiation>
-trace_opcode_latency_initiation_sfu                  4,1 # Opcode latencies and initiation for sfu in trace driven mode <latency,initiation>
-trace_opcode_latency_initiation_tensor                  4,1 # Opcode latencies and initiation for tensor in trace driven mode <latency,initiation>
-trace_opcode_latency_initiation_spec_op_1                  4,4 # specialized unit config <latency,initiation>
-trace_opcode_latency_initiation_spec_op_2                  4,4 # specialized unit config <latency,initiation>
-trace_opcode_latency_initiation_spec_op_3                  4,4 # specialized unit config <latency,initiation>
-trace_opcode_latency_initiation_spec_op_4                  4,4 # specialized unit config <latency,initiation>
-trace_opcode_latency_initiation_spec_op_5                  4,4 # specialized unit config <latency,initiation>
-trace_opcode_latency_initiation_spec_op_6                  4,4 # specialized unit config <latency,initiation>
-trace_opcode_latency_initiation_spec_op_7                  4,4 # specialized unit config <latency,initiation>
-trace_opcode_latency_initiation_spec_op_8                  4,4 # specialized unit config <latency,initiation>
DRAM Timing Options:
nbk                                    16 # number of banks
CCD                                     4 # column to column delay
RRD                                    12 # minimal delay between activation of rows in different banks
RCD                                    24 # row to column delay
RAS                                    55 # time needed to activate row
RP                                     24 # time needed to precharge (deactivate) row
RC                                     78 # row cycle time
CDLR                                   10 # switching from write to read (changes tWTR)
WR                                     24 # last data-in to row precharge
CL                                     24 # CAS latency
WL                                      8 # Write latency
nbkgrp                                  4 # number of bank groups
CCDL                                    6 # column to column delay between accesses to different bank groups
RTPL                                    4 # read to precharge delay between accesses to different bank groups
Total number of memory sub partition = 24
addr_dec_mask[CHIP]  = 0000000000000000 	high:64 low:0
addr_dec_mask[BK]    = 0000000000007080 	high:15 low:7
addr_dec_mask[ROW]   = 000000000fff8000 	high:28 low:15
addr_dec_mask[COL]   = 0000000000000f7f 	high:12 low:0
addr_dec_mask[BURST] = 000000000000001f 	high:5 low:0
sub_partition_id_mask = 0000000000000080
GPGPU-Sim uArch: clock freqs: 1410000000.000000:1410000000.000000:1410000000.000000:4000000000.000000
GPGPU-Sim uArch: clock periods: 0.00000000070921985816:0.00000000070921985816:0.00000000070921985816:0.00000000025000000000
*** Initializing Memory Statistics ***
GPGPU-Sim uArch: performance model initialization complete.
launching memcpy command : MemcpyHtoD,0x00007fd4db600000,8000000
launching memcpy command : MemcpyHtoD,0x00007fd4e2a00000,8000000
launching memcpy command : MemcpyHtoD,0x00007fd4e3200000,8000000
Processing kernel /benchrun/accelsim-sass/vectoradd/sm86_a6000/input-1000000/results/traces/kernel-1.traceg
-kernel name = _Z6vecAddPdS_S_i
-kernel id = 1
-grid dim = (977,1,1)
-block dim = (1024,1,1)
-shmem = 0
-nregs = 10
-binary version = 61
-cuda stream id = 0
-shmem base_addr = 0x00007fd507000000
-local mem base_addr = 0x00007fd505000000
-nvbit version = 1.5.5
-accelsim tracer version = 3
Header info loaded for kernel command : /benchrun/accelsim-sass/vectoradd/sm86_a6000/input-1000000/results/traces/kernel-1.traceg
launching kernel name: _Z6vecAddPdS_S_i uid: 1
GPGPU-Sim uArch: Shader 0 bind to kernel 1 '_Z6vecAddPdS_S_i'
GPGPU-Sim uArch: CTA/core = 1, limited by: threads
GPGPU-Sim: Reconfigure L1 cache to 128KB
thread block = 0,0,0
GPGPU-Sim uArch: Shader 1 bind to kernel 1 '_Z6vecAddPdS_S_i'
thread block = 1,0,0
GPGPU-Sim uArch: Shader 2 bind to kernel 1 '_Z6vecAddPdS_S_i'
thread block = 2,0,0
GPGPU-Sim uArch: Shader 3 bind to kernel 1 '_Z6vecAddPdS_S_i'
thread block = 3,0,0
GPGPU-Sim uArch: Shader 4 bind to kernel 1 '_Z6vecAddPdS_S_i'
thread block = 4,0,0
GPGPU-Sim uArch: Shader 5 bind to kernel 1 '_Z6vecAddPdS_S_i'
thread block = 5,0,0
GPGPU-Sim uArch: Shader 6 bind to kernel 1 '_Z6vecAddPdS_S_i'
thread block = 6,0,0
GPGPU-Sim uArch: Shader 7 bind to kernel 1 '_Z6vecAddPdS_S_i'
thread block = 7,0,0
GPGPU-Sim uArch: Shader 8 bind to kernel 1 '_Z6vecAddPdS_S_i'
thread block = 8,0,0
GPGPU-Sim uArch: Shader 9 bind to kernel 1 '_Z6vecAddPdS_S_i'
thread block = 9,0,0
GPGPU-Sim uArch: Shader 10 bind to kernel 1 '_Z6vecAddPdS_S_i'
thread block = 10,0,0
GPGPU-Sim uArch: Shader 11 bind to kernel 1 '_Z6vecAddPdS_S_i'
thread block = 11,0,0
GPGPU-Sim uArch: Shader 12 bind to kernel 1 '_Z6vecAddPdS_S_i'
thread block = 12,0,0
GPGPU-Sim uArch: Shader 13 bind to kernel 1 '_Z6vecAddPdS_S_i'
thread block = 13,0,0
GPGPU-Sim uArch: Shader 14 bind to kernel 1 '_Z6vecAddPdS_S_i'
thread block = 14,0,0
GPGPU-Sim uArch: Shader 15 bind to kernel 1 '_Z6vecAddPdS_S_i'
thread block = 15,0,0
GPGPU-Sim uArch: Shader 16 bind to kernel 1 '_Z6vecAddPdS_S_i'
thread block = 16,0,0
GPGPU-Sim uArch: Shader 17 bind to kernel 1 '_Z6vecAddPdS_S_i'
thread block = 17,0,0
GPGPU-Sim uArch: Shader 18 bind to kernel 1 '_Z6vecAddPdS_S_i'
thread block = 18,0,0
GPGPU-Sim uArch: Shader 19 bind to kernel 1 '_Z6vecAddPdS_S_i'
thread block = 19,0,0
GPGPU-Sim uArch: Shader 20 bind to kernel 1 '_Z6vecAddPdS_S_i'
thread block = 20,0,0
GPGPU-Sim uArch: Shader 21 bind to kernel 1 '_Z6vecAddPdS_S_i'
thread block = 21,0,0
GPGPU-Sim uArch: Shader 22 bind to kernel 1 '_Z6vecAddPdS_S_i'
thread block = 22,0,0
GPGPU-Sim uArch: Shader 23 bind to kernel 1 '_Z6vecAddPdS_S_i'
thread block = 23,0,0
GPGPU-Sim uArch: Shader 24 bind to kernel 1 '_Z6vecAddPdS_S_i'
thread block = 24,0,0
GPGPU-Sim uArch: Shader 25 bind to kernel 1 '_Z6vecAddPdS_S_i'
thread block = 25,0,0
GPGPU-Sim uArch: Shader 26 bind to kernel 1 '_Z6vecAddPdS_S_i'
thread block = 26,0,0
GPGPU-Sim uArch: Shader 27 bind to kernel 1 '_Z6vecAddPdS_S_i'
thread block = 27,0,0
GPGPU-Sim uArch: Shader 28 bind to kernel 1 '_Z6vecAddPdS_S_i'
thread block = 28,0,0
GPGPU-Sim uArch: Shader 29 bind to kernel 1 '_Z6vecAddPdS_S_i'
thread block = 29,0,0
GPGPU-Sim uArch: Shader 30 bind to kernel 1 '_Z6vecAddPdS_S_i'
thread block = 30,0,0
GPGPU-Sim uArch: Shader 31 bind to kernel 1 '_Z6vecAddPdS_S_i'
thread block = 31,0,0
GPGPU-Sim uArch: Shader 32 bind to kernel 1 '_Z6vecAddPdS_S_i'
thread block = 32,0,0
GPGPU-Sim uArch: Shader 33 bind to kernel 1 '_Z6vecAddPdS_S_i'
thread block = 33,0,0
GPGPU-Sim uArch: Shader 34 bind to kernel 1 '_Z6vecAddPdS_S_i'
thread block = 34,0,0
GPGPU-Sim uArch: Shader 35 bind to kernel 1 '_Z6vecAddPdS_S_i'
thread block = 35,0,0
GPGPU-Sim uArch: Shader 36 bind to kernel 1 '_Z6vecAddPdS_S_i'
thread block = 36,0,0
GPGPU-Sim uArch: Shader 37 bind to kernel 1 '_Z6vecAddPdS_S_i'
thread block = 37,0,0
GPGPU-Sim uArch: Shader 38 bind to kernel 1 '_Z6vecAddPdS_S_i'
thread block = 38,0,0
GPGPU-Sim uArch: Shader 39 bind to kernel 1 '_Z6vecAddPdS_S_i'
thread block = 39,0,0
GPGPU-Sim uArch: Shader 40 bind to kernel 1 '_Z6vecAddPdS_S_i'
thread block = 40,0,0
GPGPU-Sim uArch: Shader 41 bind to kernel 1 '_Z6vecAddPdS_S_i'
thread block = 41,0,0
GPGPU-Sim uArch: Shader 42 bind to kernel 1 '_Z6vecAddPdS_S_i'
thread block = 42,0,0
GPGPU-Sim uArch: Shader 43 bind to kernel 1 '_Z6vecAddPdS_S_i'
thread block = 43,0,0
GPGPU-Sim uArch: Shader 44 bind to kernel 1 '_Z6vecAddPdS_S_i'
thread block = 44,0,0
GPGPU-Sim uArch: Shader 45 bind to kernel 1 '_Z6vecAddPdS_S_i'
thread block = 45,0,0
GPGPU-Sim uArch: Shader 46 bind to kernel 1 '_Z6vecAddPdS_S_i'
thread block = 46,0,0
GPGPU-Sim uArch: Shader 47 bind to kernel 1 '_Z6vecAddPdS_S_i'
thread block = 47,0,0
GPGPU-Sim uArch: Shader 48 bind to kernel 1 '_Z6vecAddPdS_S_i'
thread block = 48,0,0
GPGPU-Sim uArch: Shader 49 bind to kernel 1 '_Z6vecAddPdS_S_i'
thread block = 49,0,0
GPGPU-Sim uArch: Shader 50 bind to kernel 1 '_Z6vecAddPdS_S_i'
thread block = 50,0,0
GPGPU-Sim uArch: Shader 51 bind to kernel 1 '_Z6vecAddPdS_S_i'
thread block = 51,0,0
GPGPU-Sim uArch: Shader 52 bind to kernel 1 '_Z6vecAddPdS_S_i'
thread block = 52,0,0
GPGPU-Sim uArch: Shader 53 bind to kernel 1 '_Z6vecAddPdS_S_i'
thread block = 53,0,0
GPGPU-Sim uArch: Shader 54 bind to kernel 1 '_Z6vecAddPdS_S_i'
thread block = 54,0,0
GPGPU-Sim uArch: Shader 55 bind to kernel 1 '_Z6vecAddPdS_S_i'
thread block = 55,0,0
GPGPU-Sim uArch: Shader 56 bind to kernel 1 '_Z6vecAddPdS_S_i'
thread block = 56,0,0
GPGPU-Sim uArch: Shader 57 bind to kernel 1 '_Z6vecAddPdS_S_i'
thread block = 57,0,0
GPGPU-Sim uArch: Shader 58 bind to kernel 1 '_Z6vecAddPdS_S_i'
thread block = 58,0,0
GPGPU-Sim uArch: Shader 59 bind to kernel 1 '_Z6vecAddPdS_S_i'
thread block = 59,0,0
GPGPU-Sim uArch: Shader 60 bind to kernel 1 '_Z6vecAddPdS_S_i'
thread block = 60,0,0
GPGPU-Sim uArch: Shader 61 bind to kernel 1 '_Z6vecAddPdS_S_i'
thread block = 61,0,0
GPGPU-Sim uArch: Shader 62 bind to kernel 1 '_Z6vecAddPdS_S_i'
thread block = 62,0,0
GPGPU-Sim uArch: Shader 63 bind to kernel 1 '_Z6vecAddPdS_S_i'
thread block = 63,0,0
GPGPU-Sim uArch: Shader 64 bind to kernel 1 '_Z6vecAddPdS_S_i'
thread block = 64,0,0
GPGPU-Sim uArch: Shader 65 bind to kernel 1 '_Z6vecAddPdS_S_i'
thread block = 65,0,0
GPGPU-Sim uArch: Shader 66 bind to kernel 1 '_Z6vecAddPdS_S_i'
thread block = 66,0,0
GPGPU-Sim uArch: Shader 67 bind to kernel 1 '_Z6vecAddPdS_S_i'
thread block = 67,0,0
GPGPU-Sim uArch: Shader 68 bind to kernel 1 '_Z6vecAddPdS_S_i'
thread block = 68,0,0
GPGPU-Sim uArch: Shader 69 bind to kernel 1 '_Z6vecAddPdS_S_i'
thread block = 69,0,0
GPGPU-Sim uArch: Shader 70 bind to kernel 1 '_Z6vecAddPdS_S_i'
thread block = 70,0,0
GPGPU-Sim uArch: Shader 71 bind to kernel 1 '_Z6vecAddPdS_S_i'
thread block = 71,0,0
GPGPU-Sim uArch: Shader 72 bind to kernel 1 '_Z6vecAddPdS_S_i'
thread block = 72,0,0
GPGPU-Sim uArch: Shader 73 bind to kernel 1 '_Z6vecAddPdS_S_i'
thread block = 73,0,0
GPGPU-Sim uArch: Shader 74 bind to kernel 1 '_Z6vecAddPdS_S_i'
thread block = 74,0,0
GPGPU-Sim uArch: Shader 75 bind to kernel 1 '_Z6vecAddPdS_S_i'
thread block = 75,0,0
GPGPU-Sim uArch: Shader 76 bind to kernel 1 '_Z6vecAddPdS_S_i'
thread block = 76,0,0
GPGPU-Sim uArch: Shader 77 bind to kernel 1 '_Z6vecAddPdS_S_i'
thread block = 77,0,0
GPGPU-Sim uArch: Shader 78 bind to kernel 1 '_Z6vecAddPdS_S_i'
thread block = 78,0,0
GPGPU-Sim uArch: Shader 79 bind to kernel 1 '_Z6vecAddPdS_S_i'
thread block = 79,0,0
GPGPU-Sim uArch: Shader 80 bind to kernel 1 '_Z6vecAddPdS_S_i'
thread block = 80,0,0
GPGPU-Sim uArch: Shader 81 bind to kernel 1 '_Z6vecAddPdS_S_i'
thread block = 81,0,0
GPGPU-Sim uArch: Shader 82 bind to kernel 1 '_Z6vecAddPdS_S_i'
thread block = 82,0,0
GPGPU-Sim uArch: Shader 83 bind to kernel 1 '_Z6vecAddPdS_S_i'
thread block = 83,0,0
GPGPU-Sim uArch: Shader 32 bind to kernel 1 '_Z6vecAddPdS_S_i'
thread block = 84,0,0
GPGPU-Sim uArch: Shader 17 bind to kernel 1 '_Z6vecAddPdS_S_i'
thread block = 85,0,0
GPGPU-Sim uArch: Shader 64 bind to kernel 1 '_Z6vecAddPdS_S_i'
thread block = 86,0,0
GPGPU-Sim uArch: Shader 19 bind to kernel 1 '_Z6vecAddPdS_S_i'
thread block = 87,0,0
GPGPU-Sim uArch: Shader 6 bind to kernel 1 '_Z6vecAddPdS_S_i'
thread block = 88,0,0
GPGPU-Sim uArch: Shader 28 bind to kernel 1 '_Z6vecAddPdS_S_i'
thread block = 89,0,0
GPGPU-Sim uArch: Shader 11 bind to kernel 1 '_Z6vecAddPdS_S_i'
thread block = 90,0,0
GPGPU-Sim uArch: Shader 79 bind to kernel 1 '_Z6vecAddPdS_S_i'
thread block = 91,0,0
GPGPU-Sim uArch: Shader 2 bind to kernel 1 '_Z6vecAddPdS_S_i'
thread block = 92,0,0
GPGPU-Sim uArch: Shader 13 bind to kernel 1 '_Z6vecAddPdS_S_i'
thread block = 93,0,0
GPGPU-Sim uArch: Shader 24 bind to kernel 1 '_Z6vecAddPdS_S_i'
thread block = 94,0,0
GPGPU-Sim uArch: Shader 34 bind to kernel 1 '_Z6vecAddPdS_S_i'
thread block = 95,0,0
GPGPU-Sim uArch: Shader 15 bind to kernel 1 '_Z6vecAddPdS_S_i'
thread block = 96,0,0
GPGPU-Sim uArch: Shader 43 bind to kernel 1 '_Z6vecAddPdS_S_i'
thread block = 97,0,0
GPGPU-Sim uArch: Shader 38 bind to kernel 1 '_Z6vecAddPdS_S_i'
thread block = 98,0,0
GPGPU-Sim uArch: Shader 75 bind to kernel 1 '_Z6vecAddPdS_S_i'
thread block = 99,0,0
GPGPU-Sim uArch: Shader 66 bind to kernel 1 '_Z6vecAddPdS_S_i'
thread block = 100,0,0
GPGPU-Sim uArch: Shader 68 bind to kernel 1 '_Z6vecAddPdS_S_i'
thread block = 101,0,0
GPGPU-Sim uArch: Shader 47 bind to kernel 1 '_Z6vecAddPdS_S_i'
thread block = 102,0,0
GPGPU-Sim uArch: Shader 60 bind to kernel 1 '_Z6vecAddPdS_S_i'
thread block = 103,0,0
GPGPU-Sim uArch: Shader 77 bind to kernel 1 '_Z6vecAddPdS_S_i'
thread block = 104,0,0
GPGPU-Sim uArch: Shader 70 bind to kernel 1 '_Z6vecAddPdS_S_i'
thread block = 105,0,0
GPGPU-Sim uArch: Shader 81 bind to kernel 1 '_Z6vecAddPdS_S_i'
thread block = 106,0,0
GPGPU-Sim uArch: Shader 49 bind to kernel 1 '_Z6vecAddPdS_S_i'
thread block = 107,0,0
GPGPU-Sim uArch: Shader 45 bind to kernel 1 '_Z6vecAddPdS_S_i'
thread block = 108,0,0
GPGPU-Sim uArch: Shader 30 bind to kernel 1 '_Z6vecAddPdS_S_i'
thread block = 109,0,0
GPGPU-Sim uArch: Shader 39 bind to kernel 1 '_Z6vecAddPdS_S_i'
thread block = 110,0,0
GPGPU-Sim uArch: Shader 51 bind to kernel 1 '_Z6vecAddPdS_S_i'
thread block = 111,0,0
GPGPU-Sim uArch: Shader 69 bind to kernel 1 '_Z6vecAddPdS_S_i'
thread block = 112,0,0
GPGPU-Sim uArch: Shader 83 bind to kernel 1 '_Z6vecAddPdS_S_i'
thread block = 113,0,0
GPGPU-Sim uArch: Shader 41 bind to kernel 1 '_Z6vecAddPdS_S_i'
thread block = 114,0,0
GPGPU-Sim uArch: Shader 9 bind to kernel 1 '_Z6vecAddPdS_S_i'
thread block = 115,0,0
GPGPU-Sim uArch: Shader 21 bind to kernel 1 '_Z6vecAddPdS_S_i'
thread block = 116,0,0
GPGPU-Sim uArch: Shader 56 bind to kernel 1 '_Z6vecAddPdS_S_i'
thread block = 117,0,0
GPGPU-Sim uArch: Shader 0 bind to kernel 1 '_Z6vecAddPdS_S_i'
thread block = 118,0,0
GPGPU-Sim uArch: Shader 23 bind to kernel 1 '_Z6vecAddPdS_S_i'
thread block = 119,0,0
GPGPU-Sim uArch: Shader 73 bind to kernel 1 '_Z6vecAddPdS_S_i'
thread block = 120,0,0
GPGPU-Sim uArch: Shader 26 bind to kernel 1 '_Z6vecAddPdS_S_i'
thread block = 121,0,0
GPGPU-Sim uArch: Shader 42 bind to kernel 1 '_Z6vecAddPdS_S_i'
thread block = 122,0,0
GPGPU-Sim uArch: Shader 53 bind to kernel 1 '_Z6vecAddPdS_S_i'
thread block = 123,0,0
GPGPU-Sim uArch: Shader 58 bind to kernel 1 '_Z6vecAddPdS_S_i'
thread block = 124,0,0
GPGPU-Sim uArch: Shader 46 bind to kernel 1 '_Z6vecAddPdS_S_i'
thread block = 125,0,0
GPGPU-Sim uArch: Shader 55 bind to kernel 1 '_Z6vecAddPdS_S_i'
thread block = 126,0,0
GPGPU-Sim uArch: Shader 62 bind to kernel 1 '_Z6vecAddPdS_S_i'
thread block = 127,0,0
GPGPU-Sim uArch: Shader 36 bind to kernel 1 '_Z6vecAddPdS_S_i'
thread block = 128,0,0
GPGPU-Sim uArch: Shader 74 bind to kernel 1 '_Z6vecAddPdS_S_i'
thread block = 129,0,0
GPGPU-Sim uArch: Shader 37 bind to kernel 1 '_Z6vecAddPdS_S_i'
thread block = 130,0,0
GPGPU-Sim uArch: Shader 4 bind to kernel 1 '_Z6vecAddPdS_S_i'
thread block = 131,0,0
GPGPU-Sim uArch: Shader 71 bind to kernel 1 '_Z6vecAddPdS_S_i'
thread block = 132,0,0
GPGPU-Sim uArch: Shader 61 bind to kernel 1 '_Z6vecAddPdS_S_i'
thread block = 133,0,0
GPGPU-Sim uArch: Shader 16 bind to kernel 1 '_Z6vecAddPdS_S_i'
thread block = 134,0,0
GPGPU-Sim uArch: Shader 22 bind to kernel 1 '_Z6vecAddPdS_S_i'
thread block = 135,0,0
GPGPU-Sim uArch: Shader 78 bind to kernel 1 '_Z6vecAddPdS_S_i'
thread block = 136,0,0
GPGPU-Sim uArch: Shader 80 bind to kernel 1 '_Z6vecAddPdS_S_i'
thread block = 137,0,0
GPGPU-Sim uArch: Shader 1 bind to kernel 1 '_Z6vecAddPdS_S_i'
thread block = 138,0,0
GPGPU-Sim uArch: Shader 5 bind to kernel 1 '_Z6vecAddPdS_S_i'
thread block = 139,0,0
GPGPU-Sim uArch: Shader 7 bind to kernel 1 '_Z6vecAddPdS_S_i'
thread block = 140,0,0
GPGPU-Sim uArch: Shader 10 bind to kernel 1 '_Z6vecAddPdS_S_i'
thread block = 141,0,0
GPGPU-Sim uArch: Shader 14 bind to kernel 1 '_Z6vecAddPdS_S_i'
thread block = 142,0,0
GPGPU-Sim uArch: Shader 20 bind to kernel 1 '_Z6vecAddPdS_S_i'
thread block = 143,0,0
GPGPU-Sim uArch: Shader 25 bind to kernel 1 '_Z6vecAddPdS_S_i'
thread block = 144,0,0
GPGPU-Sim uArch: Shader 27 bind to kernel 1 '_Z6vecAddPdS_S_i'
thread block = 145,0,0
GPGPU-Sim uArch: Shader 29 bind to kernel 1 '_Z6vecAddPdS_S_i'
thread block = 146,0,0
GPGPU-Sim uArch: Shader 33 bind to kernel 1 '_Z6vecAddPdS_S_i'
thread block = 147,0,0
GPGPU-Sim uArch: Shader 40 bind to kernel 1 '_Z6vecAddPdS_S_i'
thread block = 148,0,0
GPGPU-Sim uArch: Shader 44 bind to kernel 1 '_Z6vecAddPdS_S_i'
thread block = 149,0,0
GPGPU-Sim uArch: Shader 48 bind to kernel 1 '_Z6vecAddPdS_S_i'
thread block = 150,0,0
GPGPU-Sim uArch: Shader 50 bind to kernel 1 '_Z6vecAddPdS_S_i'
thread block = 151,0,0
GPGPU-Sim uArch: Shader 57 bind to kernel 1 '_Z6vecAddPdS_S_i'
thread block = 152,0,0
GPGPU-Sim uArch: Shader 67 bind to kernel 1 '_Z6vecAddPdS_S_i'
thread block = 153,0,0
GPGPU-Sim uArch: Shader 72 bind to kernel 1 '_Z6vecAddPdS_S_i'
thread block = 154,0,0
GPGPU-Sim uArch: Shader 54 bind to kernel 1 '_Z6vecAddPdS_S_i'
thread block = 155,0,0
GPGPU-Sim uArch: Shader 76 bind to kernel 1 '_Z6vecAddPdS_S_i'
thread block = 156,0,0
GPGPU-Sim uArch: Shader 3 bind to kernel 1 '_Z6vecAddPdS_S_i'
thread block = 157,0,0
GPGPU-Sim uArch: Shader 82 bind to kernel 1 '_Z6vecAddPdS_S_i'
thread block = 158,0,0
GPGPU-Sim uArch: Shader 8 bind to kernel 1 '_Z6vecAddPdS_S_i'
thread block = 159,0,0
GPGPU-Sim uArch: Shader 59 bind to kernel 1 '_Z6vecAddPdS_S_i'
thread block = 160,0,0
GPGPU-Sim uArch: Shader 18 bind to kernel 1 '_Z6vecAddPdS_S_i'
thread block = 161,0,0
GPGPU-Sim uArch: Shader 52 bind to kernel 1 '_Z6vecAddPdS_S_i'
thread block = 162,0,0
GPGPU-Sim uArch: Shader 65 bind to kernel 1 '_Z6vecAddPdS_S_i'
thread block = 163,0,0
GPGPU-Sim uArch: Shader 31 bind to kernel 1 '_Z6vecAddPdS_S_i'
thread block = 164,0,0
GPGPU-Sim uArch: Shader 63 bind to kernel 1 '_Z6vecAddPdS_S_i'
thread block = 165,0,0
GPGPU-Sim uArch: Shader 12 bind to kernel 1 '_Z6vecAddPdS_S_i'
thread block = 166,0,0
GPGPU-Sim uArch: Shader 35 bind to kernel 1 '_Z6vecAddPdS_S_i'
thread block = 167,0,0
GPGPU-Sim uArch: Shader 17 bind to kernel 1 '_Z6vecAddPdS_S_i'
thread block = 168,0,0
GPGPU-Sim uArch: Shader 6 bind to kernel 1 '_Z6vecAddPdS_S_i'
thread block = 169,0,0
GPGPU-Sim uArch: Shader 19 bind to kernel 1 '_Z6vecAddPdS_S_i'
thread block = 170,0,0
GPGPU-Sim uArch: Shader 32 bind to kernel 1 '_Z6vecAddPdS_S_i'
thread block = 171,0,0
GPGPU-Sim uArch: Shader 15 bind to kernel 1 '_Z6vecAddPdS_S_i'
thread block = 172,0,0
GPGPU-Sim uArch: Shader 2 bind to kernel 1 '_Z6vecAddPdS_S_i'
thread block = 173,0,0
GPGPU-Sim uArch: Shader 11 bind to kernel 1 '_Z6vecAddPdS_S_i'
thread block = 174,0,0
GPGPU-Sim uArch: Shader 28 bind to kernel 1 '_Z6vecAddPdS_S_i'
thread block = 175,0,0
GPGPU-Sim uArch: Shader 64 bind to kernel 1 '_Z6vecAddPdS_S_i'
thread block = 176,0,0
GPGPU-Sim uArch: Shader 47 bind to kernel 1 '_Z6vecAddPdS_S_i'
thread block = 177,0,0
GPGPU-Sim uArch: Shader 24 bind to kernel 1 '_Z6vecAddPdS_S_i'
thread block = 178,0,0
GPGPU-Sim uArch: Shader 9 bind to kernel 1 '_Z6vecAddPdS_S_i'
thread block = 179,0,0
GPGPU-Sim uArch: Shader 38 bind to kernel 1 '_Z6vecAddPdS_S_i'
thread block = 180,0,0
GPGPU-Sim uArch: Shader 30 bind to kernel 1 '_Z6vecAddPdS_S_i'
thread block = 181,0,0
GPGPU-Sim uArch: Shader 13 bind to kernel 1 '_Z6vecAddPdS_S_i'
thread block = 182,0,0
GPGPU-Sim uArch: Shader 83 bind to kernel 1 '_Z6vecAddPdS_S_i'
thread block = 183,0,0
GPGPU-Sim uArch: Shader 36 bind to kernel 1 '_Z6vecAddPdS_S_i'
thread block = 184,0,0
GPGPU-Sim uArch: Shader 49 bind to kernel 1 '_Z6vecAddPdS_S_i'
thread block = 185,0,0
GPGPU-Sim uArch: Shader 68 bind to kernel 1 '_Z6vecAddPdS_S_i'
thread block = 186,0,0
GPGPU-Sim uArch: Shader 79 bind to kernel 1 '_Z6vecAddPdS_S_i'
thread block = 187,0,0
GPGPU-Sim uArch: Shader 51 bind to kernel 1 '_Z6vecAddPdS_S_i'
thread block = 188,0,0
GPGPU-Sim uArch: Shader 70 bind to kernel 1 '_Z6vecAddPdS_S_i'
thread block = 189,0,0
GPGPU-Sim uArch: Shader 66 bind to kernel 1 '_Z6vecAddPdS_S_i'
thread block = 190,0,0
GPGPU-Sim uArch: Shader 33 bind to kernel 1 '_Z6vecAddPdS_S_i'
thread block = 191,0,0
GPGPU-Sim uArch: Shader 34 bind to kernel 1 '_Z6vecAddPdS_S_i'
thread block = 192,0,0
GPGPU-Sim uArch: Shader 52 bind to kernel 1 '_Z6vecAddPdS_S_i'
thread block = 193,0,0
GPGPU-Sim uArch: Shader 59 bind to kernel 1 '_Z6vecAddPdS_S_i'
thread block = 194,0,0
GPGPU-Sim uArch: Shader 75 bind to kernel 1 '_Z6vecAddPdS_S_i'
thread block = 195,0,0
GPGPU-Sim uArch: Shader 21 bind to kernel 1 '_Z6vecAddPdS_S_i'
thread block = 196,0,0
GPGPU-Sim uArch: Shader 61 bind to kernel 1 '_Z6vecAddPdS_S_i'
thread block = 197,0,0
GPGPU-Sim uArch: Shader 37 bind to kernel 1 '_Z6vecAddPdS_S_i'
thread block = 198,0,0
GPGPU-Sim uArch: Shader 10 bind to kernel 1 '_Z6vecAddPdS_S_i'
thread block = 199,0,0
GPGPU-Sim uArch: Shader 73 bind to kernel 1 '_Z6vecAddPdS_S_i'
thread block = 200,0,0
GPGPU-Sim uArch: Shader 76 bind to kernel 1 '_Z6vecAddPdS_S_i'
thread block = 201,0,0
GPGPU-Sim uArch: Shader 5 bind to kernel 1 '_Z6vecAddPdS_S_i'
thread block = 202,0,0
GPGPU-Sim uArch: Shader 16 bind to kernel 1 '_Z6vecAddPdS_S_i'
thread block = 203,0,0
GPGPU-Sim uArch: Shader 43 bind to kernel 1 '_Z6vecAddPdS_S_i'
thread block = 204,0,0
GPGPU-Sim uArch: Shader 56 bind to kernel 1 '_Z6vecAddPdS_S_i'
thread block = 205,0,0
GPGPU-Sim uArch: Shader 81 bind to kernel 1 '_Z6vecAddPdS_S_i'
thread block = 206,0,0
GPGPU-Sim uArch: Shader 20 bind to kernel 1 '_Z6vecAddPdS_S_i'
thread block = 207,0,0
GPGPU-Sim uArch: Shader 12 bind to kernel 1 '_Z6vecAddPdS_S_i'
thread block = 208,0,0
GPGPU-Sim uArch: Shader 23 bind to kernel 1 '_Z6vecAddPdS_S_i'
thread block = 209,0,0
GPGPU-Sim uArch: Shader 27 bind to kernel 1 '_Z6vecAddPdS_S_i'
thread block = 210,0,0
GPGPU-Sim uArch: Shader 39 bind to kernel 1 '_Z6vecAddPdS_S_i'
thread block = 211,0,0
GPGPU-Sim uArch: Shader 74 bind to kernel 1 '_Z6vecAddPdS_S_i'
thread block = 212,0,0
GPGPU-Sim uArch: Shader 60 bind to kernel 1 '_Z6vecAddPdS_S_i'
thread block = 213,0,0
GPGPU-Sim uArch: Shader 57 bind to kernel 1 '_Z6vecAddPdS_S_i'
thread block = 214,0,0
GPGPU-Sim uArch: Shader 40 bind to kernel 1 '_Z6vecAddPdS_S_i'
thread block = 215,0,0
GPGPU-Sim uArch: Shader 44 bind to kernel 1 '_Z6vecAddPdS_S_i'
thread block = 216,0,0
GPGPU-Sim uArch: Shader 82 bind to kernel 1 '_Z6vecAddPdS_S_i'
thread block = 217,0,0
GPGPU-Sim uArch: Shader 69 bind to kernel 1 '_Z6vecAddPdS_S_i'
thread block = 218,0,0
GPGPU-Sim uArch: Shader 77 bind to kernel 1 '_Z6vecAddPdS_S_i'
thread block = 219,0,0
GPGPU-Sim uArch: Shader 62 bind to kernel 1 '_Z6vecAddPdS_S_i'
thread block = 220,0,0
GPGPU-Sim uArch: Shader 71 bind to kernel 1 '_Z6vecAddPdS_S_i'
thread block = 221,0,0
GPGPU-Sim uArch: Shader 42 bind to kernel 1 '_Z6vecAddPdS_S_i'
thread block = 222,0,0
GPGPU-Sim uArch: Shader 58 bind to kernel 1 '_Z6vecAddPdS_S_i'
thread block = 223,0,0
GPGPU-Sim uArch: Shader 7 bind to kernel 1 '_Z6vecAddPdS_S_i'
thread block = 224,0,0
GPGPU-Sim uArch: Shader 0 bind to kernel 1 '_Z6vecAddPdS_S_i'
thread block = 225,0,0
GPGPU-Sim uArch: Shader 22 bind to kernel 1 '_Z6vecAddPdS_S_i'
thread block = 226,0,0
GPGPU-Sim uArch: Shader 45 bind to kernel 1 '_Z6vecAddPdS_S_i'
thread block = 227,0,0
GPGPU-Sim uArch: Shader 26 bind to kernel 1 '_Z6vecAddPdS_S_i'
thread block = 228,0,0
GPGPU-Sim uArch: Shader 72 bind to kernel 1 '_Z6vecAddPdS_S_i'
thread block = 229,0,0
GPGPU-Sim uArch: Shader 54 bind to kernel 1 '_Z6vecAddPdS_S_i'
thread block = 230,0,0
GPGPU-Sim uArch: Shader 50 bind to kernel 1 '_Z6vecAddPdS_S_i'
thread block = 231,0,0
GPGPU-Sim uArch: Shader 55 bind to kernel 1 '_Z6vecAddPdS_S_i'
thread block = 232,0,0
GPGPU-Sim uArch: Shader 25 bind to kernel 1 '_Z6vecAddPdS_S_i'
thread block = 233,0,0
GPGPU-Sim uArch: Shader 31 bind to kernel 1 '_Z6vecAddPdS_S_i'
thread block = 234,0,0
GPGPU-Sim uArch: Shader 35 bind to kernel 1 '_Z6vecAddPdS_S_i'
thread block = 235,0,0
GPGPU-Sim uArch: Shader 29 bind to kernel 1 '_Z6vecAddPdS_S_i'
thread block = 236,0,0
GPGPU-Sim uArch: Shader 80 bind to kernel 1 '_Z6vecAddPdS_S_i'
thread block = 237,0,0
GPGPU-Sim uArch: Shader 4 bind to kernel 1 '_Z6vecAddPdS_S_i'
thread block = 238,0,0
GPGPU-Sim uArch: Shader 3 bind to kernel 1 '_Z6vecAddPdS_S_i'
thread block = 239,0,0
GPGPU-Sim uArch: Shader 41 bind to kernel 1 '_Z6vecAddPdS_S_i'
thread block = 240,0,0
GPGPU-Sim uArch: Shader 46 bind to kernel 1 '_Z6vecAddPdS_S_i'
thread block = 241,0,0
GPGPU-Sim uArch: Shader 78 bind to kernel 1 '_Z6vecAddPdS_S_i'
thread block = 242,0,0
GPGPU-Sim uArch: Shader 67 bind to kernel 1 '_Z6vecAddPdS_S_i'
thread block = 243,0,0
GPGPU-Sim uArch: Shader 14 bind to kernel 1 '_Z6vecAddPdS_S_i'
thread block = 244,0,0
GPGPU-Sim uArch: Shader 1 bind to kernel 1 '_Z6vecAddPdS_S_i'
thread block = 245,0,0
GPGPU-Sim uArch: Shader 18 bind to kernel 1 '_Z6vecAddPdS_S_i'
thread block = 246,0,0
GPGPU-Sim uArch: Shader 53 bind to kernel 1 '_Z6vecAddPdS_S_i'
thread block = 247,0,0
GPGPU-Sim uArch: Shader 8 bind to kernel 1 '_Z6vecAddPdS_S_i'
thread block = 248,0,0
GPGPU-Sim uArch: Shader 63 bind to kernel 1 '_Z6vecAddPdS_S_i'
thread block = 249,0,0
GPGPU-Sim uArch: Shader 48 bind to kernel 1 '_Z6vecAddPdS_S_i'
thread block = 250,0,0
GPGPU-Sim uArch: Shader 32 bind to kernel 1 '_Z6vecAddPdS_S_i'
thread block = 251,0,0
GPGPU-Sim uArch: Shader 65 bind to kernel 1 '_Z6vecAddPdS_S_i'
thread block = 252,0,0
GPGPU-Sim uArch: Shader 28 bind to kernel 1 '_Z6vecAddPdS_S_i'
thread block = 253,0,0
GPGPU-Sim uArch: Shader 2 bind to kernel 1 '_Z6vecAddPdS_S_i'
thread block = 254,0,0
GPGPU-Sim uArch: Shader 15 bind to kernel 1 '_Z6vecAddPdS_S_i'
thread block = 255,0,0
GPGPU-Sim uArch: Shader 19 bind to kernel 1 '_Z6vecAddPdS_S_i'
thread block = 256,0,0
GPGPU-Sim uArch: Shader 38 bind to kernel 1 '_Z6vecAddPdS_S_i'
thread block = 257,0,0
GPGPU-Sim uArch: Shader 17 bind to kernel 1 '_Z6vecAddPdS_S_i'
thread block = 258,0,0
GPGPU-Sim uArch: Shader 6 bind to kernel 1 '_Z6vecAddPdS_S_i'
thread block = 259,0,0
GPGPU-Sim uArch: Shader 30 bind to kernel 1 '_Z6vecAddPdS_S_i'
thread block = 260,0,0
GPGPU-Sim uArch: Shader 47 bind to kernel 1 '_Z6vecAddPdS_S_i'
thread block = 261,0,0
GPGPU-Sim uArch: Shader 64 bind to kernel 1 '_Z6vecAddPdS_S_i'
thread block = 262,0,0
GPGPU-Sim uArch: Shader 9 bind to kernel 1 '_Z6vecAddPdS_S_i'
thread block = 263,0,0
GPGPU-Sim uArch: Shader 24 bind to kernel 1 '_Z6vecAddPdS_S_i'
thread block = 264,0,0
GPGPU-Sim uArch: Shader 11 bind to kernel 1 '_Z6vecAddPdS_S_i'
thread block = 265,0,0
GPGPU-Sim uArch: Shader 51 bind to kernel 1 '_Z6vecAddPdS_S_i'
thread block = 266,0,0
GPGPU-Sim uArch: Shader 36 bind to kernel 1 '_Z6vecAddPdS_S_i'
thread block = 267,0,0
GPGPU-Sim uArch: Shader 59 bind to kernel 1 '_Z6vecAddPdS_S_i'
thread block = 268,0,0
GPGPU-Sim uArch: Shader 66 bind to kernel 1 '_Z6vecAddPdS_S_i'
thread block = 269,0,0
GPGPU-Sim uArch: Shader 83 bind to kernel 1 '_Z6vecAddPdS_S_i'
thread block = 270,0,0
GPGPU-Sim uArch: Shader 68 bind to kernel 1 '_Z6vecAddPdS_S_i'
thread block = 271,0,0
GPGPU-Sim uArch: Shader 34 bind to kernel 1 '_Z6vecAddPdS_S_i'
thread block = 272,0,0
GPGPU-Sim uArch: Shader 49 bind to kernel 1 '_Z6vecAddPdS_S_i'
thread block = 273,0,0
GPGPU-Sim uArch: Shader 13 bind to kernel 1 '_Z6vecAddPdS_S_i'
thread block = 274,0,0
GPGPU-Sim uArch: Shader 61 bind to kernel 1 '_Z6vecAddPdS_S_i'
thread block = 275,0,0
GPGPU-Sim uArch: Shader 79 bind to kernel 1 '_Z6vecAddPdS_S_i'
thread block = 276,0,0
GPGPU-Sim uArch: Shader 23 bind to kernel 1 '_Z6vecAddPdS_S_i'
thread block = 277,0,0
GPGPU-Sim uArch: Shader 37 bind to kernel 1 '_Z6vecAddPdS_S_i'
thread block = 278,0,0
GPGPU-Sim uArch: Shader 10 bind to kernel 1 '_Z6vecAddPdS_S_i'
thread block = 279,0,0
GPGPU-Sim uArch: Shader 5 bind to kernel 1 '_Z6vecAddPdS_S_i'
thread block = 280,0,0
GPGPU-Sim uArch: Shader 39 bind to kernel 1 '_Z6vecAddPdS_S_i'
thread block = 281,0,0
GPGPU-Sim uArch: Shader 62 bind to kernel 1 '_Z6vecAddPdS_S_i'
thread block = 282,0,0
GPGPU-Sim uArch: Shader 16 bind to kernel 1 '_Z6vecAddPdS_S_i'
thread block = 283,0,0
GPGPU-Sim uArch: Shader 20 bind to kernel 1 '_Z6vecAddPdS_S_i'
thread block = 284,0,0
GPGPU-Sim uArch: Shader 21 bind to kernel 1 '_Z6vecAddPdS_S_i'
thread block = 285,0,0
GPGPU-Sim uArch: Shader 44 bind to kernel 1 '_Z6vecAddPdS_S_i'
thread block = 286,0,0
GPGPU-Sim uArch: Shader 56 bind to kernel 1 '_Z6vecAddPdS_S_i'
thread block = 287,0,0
GPGPU-Sim uArch: Shader 73 bind to kernel 1 '_Z6vecAddPdS_S_i'
thread block = 288,0,0
GPGPU-Sim uArch: Shader 74 bind to kernel 1 '_Z6vecAddPdS_S_i'
thread block = 289,0,0
GPGPU-Sim uArch: Shader 76 bind to kernel 1 '_Z6vecAddPdS_S_i'
thread block = 290,0,0
GPGPU-Sim uArch: Shader 7 bind to kernel 1 '_Z6vecAddPdS_S_i'
thread block = 291,0,0
GPGPU-Sim uArch: Shader 33 bind to kernel 1 '_Z6vecAddPdS_S_i'
thread block = 292,0,0
GPGPU-Sim uArch: Shader 52 bind to kernel 1 '_Z6vecAddPdS_S_i'
thread block = 293,0,0
GPGPU-Sim uArch: Shader 80 bind to kernel 1 '_Z6vecAddPdS_S_i'
thread block = 294,0,0
GPGPU-Sim uArch: Shader 54 bind to kernel 1 '_Z6vecAddPdS_S_i'
thread block = 295,0,0
GPGPU-Sim uArch: Shader 60 bind to kernel 1 '_Z6vecAddPdS_S_i'
thread block = 296,0,0
GPGPU-Sim uArch: Shader 22 bind to kernel 1 '_Z6vecAddPdS_S_i'
thread block = 297,0,0
GPGPU-Sim uArch: Shader 40 bind to kernel 1 '_Z6vecAddPdS_S_i'
thread block = 298,0,0
GPGPU-Sim uArch: Shader 42 bind to kernel 1 '_Z6vecAddPdS_S_i'
thread block = 299,0,0
GPGPU-Sim uArch: Shader 70 bind to kernel 1 '_Z6vecAddPdS_S_i'
thread block = 300,0,0
GPGPU-Sim uArch: Shader 75 bind to kernel 1 '_Z6vecAddPdS_S_i'
thread block = 301,0,0
GPGPU-Sim uArch: Shader 27 bind to kernel 1 '_Z6vecAddPdS_S_i'
thread block = 302,0,0
GPGPU-Sim uArch: Shader 35 bind to kernel 1 '_Z6vecAddPdS_S_i'
thread block = 303,0,0
GPGPU-Sim uArch: Shader 69 bind to kernel 1 '_Z6vecAddPdS_S_i'
thread block = 304,0,0
GPGPU-Sim uArch: Shader 81 bind to kernel 1 '_Z6vecAddPdS_S_i'
thread block = 305,0,0
GPGPU-Sim uArch: Shader 3 bind to kernel 1 '_Z6vecAddPdS_S_i'
thread block = 306,0,0
GPGPU-Sim uArch: Shader 12 bind to kernel 1 '_Z6vecAddPdS_S_i'
thread block = 307,0,0
GPGPU-Sim uArch: Shader 43 bind to kernel 1 '_Z6vecAddPdS_S_i'
thread block = 308,0,0
GPGPU-Sim uArch: Shader 65 bind to kernel 1 '_Z6vecAddPdS_S_i'
thread block = 309,0,0
GPGPU-Sim uArch: Shader 26 bind to kernel 1 '_Z6vecAddPdS_S_i'
thread block = 310,0,0
GPGPU-Sim uArch: Shader 67 bind to kernel 1 '_Z6vecAddPdS_S_i'
thread block = 311,0,0
GPGPU-Sim uArch: Shader 57 bind to kernel 1 '_Z6vecAddPdS_S_i'
thread block = 312,0,0
GPGPU-Sim uArch: Shader 82 bind to kernel 1 '_Z6vecAddPdS_S_i'
thread block = 313,0,0
GPGPU-Sim uArch: Shader 31 bind to kernel 1 '_Z6vecAddPdS_S_i'
thread block = 314,0,0
GPGPU-Sim uArch: Shader 50 bind to kernel 1 '_Z6vecAddPdS_S_i'
thread block = 315,0,0
GPGPU-Sim uArch: Shader 25 bind to kernel 1 '_Z6vecAddPdS_S_i'
thread block = 316,0,0
GPGPU-Sim uArch: Shader 46 bind to kernel 1 '_Z6vecAddPdS_S_i'
thread block = 317,0,0
GPGPU-Sim uArch: Shader 72 bind to kernel 1 '_Z6vecAddPdS_S_i'
thread block = 318,0,0
GPGPU-Sim uArch: Shader 58 bind to kernel 1 '_Z6vecAddPdS_S_i'
thread block = 319,0,0
GPGPU-Sim uArch: Shader 1 bind to kernel 1 '_Z6vecAddPdS_S_i'
thread block = 320,0,0
GPGPU-Sim uArch: Shader 55 bind to kernel 1 '_Z6vecAddPdS_S_i'
thread block = 321,0,0
GPGPU-Sim uArch: Shader 45 bind to kernel 1 '_Z6vecAddPdS_S_i'
thread block = 322,0,0
GPGPU-Sim uArch: Shader 71 bind to kernel 1 '_Z6vecAddPdS_S_i'
thread block = 323,0,0
GPGPU-Sim uArch: Shader 53 bind to kernel 1 '_Z6vecAddPdS_S_i'
thread block = 324,0,0
GPGPU-Sim uArch: Shader 8 bind to kernel 1 '_Z6vecAddPdS_S_i'
thread block = 325,0,0
GPGPU-Sim uArch: Shader 14 bind to kernel 1 '_Z6vecAddPdS_S_i'
thread block = 326,0,0
GPGPU-Sim uArch: Shader 0 bind to kernel 1 '_Z6vecAddPdS_S_i'
thread block = 327,0,0
GPGPU-Sim uArch: Shader 63 bind to kernel 1 '_Z6vecAddPdS_S_i'
thread block = 328,0,0
GPGPU-Sim uArch: Shader 77 bind to kernel 1 '_Z6vecAddPdS_S_i'
thread block = 329,0,0
GPGPU-Sim uArch: Shader 78 bind to kernel 1 '_Z6vecAddPdS_S_i'
thread block = 330,0,0
GPGPU-Sim uArch: Shader 4 bind to kernel 1 '_Z6vecAddPdS_S_i'
thread block = 331,0,0
GPGPU-Sim uArch: Shader 29 bind to kernel 1 '_Z6vecAddPdS_S_i'
thread block = 332,0,0
GPGPU-Sim uArch: Shader 41 bind to kernel 1 '_Z6vecAddPdS_S_i'
thread block = 333,0,0
GPGPU-Sim uArch: Shader 48 bind to kernel 1 '_Z6vecAddPdS_S_i'
thread block = 334,0,0
GPGPU-Sim uArch: Shader 2 bind to kernel 1 '_Z6vecAddPdS_S_i'
thread block = 335,0,0
GPGPU-Sim uArch: Shader 17 bind to kernel 1 '_Z6vecAddPdS_S_i'
thread block = 336,0,0
GPGPU-Sim uArch: Shader 32 bind to kernel 1 '_Z6vecAddPdS_S_i'
thread block = 337,0,0
GPGPU-Sim uArch: Shader 47 bind to kernel 1 '_Z6vecAddPdS_S_i'
thread block = 338,0,0
GPGPU-Sim uArch: Shader 18 bind to kernel 1 '_Z6vecAddPdS_S_i'
thread block = 339,0,0
GPGPU-Sim uArch: Shader 28 bind to kernel 1 '_Z6vecAddPdS_S_i'
thread block = 340,0,0
GPGPU-Sim uArch: Shader 19 bind to kernel 1 '_Z6vecAddPdS_S_i'
thread block = 341,0,0
GPGPU-Sim uArch: Shader 38 bind to kernel 1 '_Z6vecAddPdS_S_i'
thread block = 342,0,0
GPGPU-Sim uArch: Shader 9 bind to kernel 1 '_Z6vecAddPdS_S_i'
thread block = 343,0,0
GPGPU-Sim uArch: Shader 64 bind to kernel 1 '_Z6vecAddPdS_S_i'
thread block = 344,0,0
GPGPU-Sim uArch: Shader 11 bind to kernel 1 '_Z6vecAddPdS_S_i'
thread block = 345,0,0
GPGPU-Sim uArch: Shader 36 bind to kernel 1 '_Z6vecAddPdS_S_i'
thread block = 346,0,0
GPGPU-Sim uArch: Shader 30 bind to kernel 1 '_Z6vecAddPdS_S_i'
thread block = 347,0,0
GPGPU-Sim uArch: Shader 6 bind to kernel 1 '_Z6vecAddPdS_S_i'
thread block = 348,0,0
GPGPU-Sim uArch: Shader 15 bind to kernel 1 '_Z6vecAddPdS_S_i'
thread block = 349,0,0
GPGPU-Sim uArch: Shader 24 bind to kernel 1 '_Z6vecAddPdS_S_i'
thread block = 350,0,0
GPGPU-Sim uArch: Shader 51 bind to kernel 1 '_Z6vecAddPdS_S_i'
thread block = 351,0,0
GPGPU-Sim uArch: Shader 68 bind to kernel 1 '_Z6vecAddPdS_S_i'
thread block = 352,0,0
GPGPU-Sim uArch: Shader 59 bind to kernel 1 '_Z6vecAddPdS_S_i'
thread block = 353,0,0
GPGPU-Sim uArch: Shader 49 bind to kernel 1 '_Z6vecAddPdS_S_i'
thread block = 354,0,0
GPGPU-Sim uArch: Shader 61 bind to kernel 1 '_Z6vecAddPdS_S_i'
thread block = 355,0,0
GPGPU-Sim uArch: Shader 34 bind to kernel 1 '_Z6vecAddPdS_S_i'
thread block = 356,0,0
GPGPU-Sim uArch: Shader 66 bind to kernel 1 '_Z6vecAddPdS_S_i'
thread block = 357,0,0
GPGPU-Sim uArch: Shader 79 bind to kernel 1 '_Z6vecAddPdS_S_i'
thread block = 358,0,0
GPGPU-Sim uArch: Shader 13 bind to kernel 1 '_Z6vecAddPdS_S_i'
thread block = 359,0,0
GPGPU-Sim uArch: Shader 20 bind to kernel 1 '_Z6vecAddPdS_S_i'
thread block = 360,0,0
GPGPU-Sim uArch: Shader 75 bind to kernel 1 '_Z6vecAddPdS_S_i'
thread block = 361,0,0
GPGPU-Sim uArch: Shader 73 bind to kernel 1 '_Z6vecAddPdS_S_i'
thread block = 362,0,0
GPGPU-Sim uArch: Shader 80 bind to kernel 1 '_Z6vecAddPdS_S_i'
thread block = 363,0,0
GPGPU-Sim uArch: Shader 62 bind to kernel 1 '_Z6vecAddPdS_S_i'
thread block = 364,0,0
GPGPU-Sim uArch: Shader 39 bind to kernel 1 '_Z6vecAddPdS_S_i'
thread block = 365,0,0
GPGPU-Sim uArch: Shader 35 bind to kernel 1 '_Z6vecAddPdS_S_i'
thread block = 366,0,0
GPGPU-Sim uArch: Shader 76 bind to kernel 1 '_Z6vecAddPdS_S_i'
thread block = 367,0,0
GPGPU-Sim uArch: Shader 10 bind to kernel 1 '_Z6vecAddPdS_S_i'
thread block = 368,0,0
GPGPU-Sim uArch: Shader 57 bind to kernel 1 '_Z6vecAddPdS_S_i'
thread block = 369,0,0
GPGPU-Sim uArch: Shader 83 bind to kernel 1 '_Z6vecAddPdS_S_i'
thread block = 370,0,0
GPGPU-Sim uArch: Shader 5 bind to kernel 1 '_Z6vecAddPdS_S_i'
thread block = 371,0,0
GPGPU-Sim uArch: Shader 23 bind to kernel 1 '_Z6vecAddPdS_S_i'
thread block = 372,0,0
GPGPU-Sim uArch: Shader 25 bind to kernel 1 '_Z6vecAddPdS_S_i'
thread block = 373,0,0
GPGPU-Sim uArch: Shader 37 bind to kernel 1 '_Z6vecAddPdS_S_i'
thread block = 374,0,0
GPGPU-Sim uArch: Shader 44 bind to kernel 1 '_Z6vecAddPdS_S_i'
thread block = 375,0,0
GPGPU-Sim uArch: Shader 33 bind to kernel 1 '_Z6vecAddPdS_S_i'
thread block = 376,0,0
GPGPU-Sim uArch: Shader 40 bind to kernel 1 '_Z6vecAddPdS_S_i'
thread block = 377,0,0
GPGPU-Sim uArch: Shader 81 bind to kernel 1 '_Z6vecAddPdS_S_i'
thread block = 378,0,0
GPGPU-Sim uArch: Shader 42 bind to kernel 1 '_Z6vecAddPdS_S_i'
thread block = 379,0,0
GPGPU-Sim uArch: Shader 43 bind to kernel 1 '_Z6vecAddPdS_S_i'
thread block = 380,0,0
GPGPU-Sim uArch: Shader 65 bind to kernel 1 '_Z6vecAddPdS_S_i'
thread block = 381,0,0
GPGPU-Sim uArch: Shader 74 bind to kernel 1 '_Z6vecAddPdS_S_i'
thread block = 382,0,0
GPGPU-Sim uArch: Shader 16 bind to kernel 1 '_Z6vecAddPdS_S_i'
thread block = 383,0,0
GPGPU-Sim uArch: Shader 56 bind to kernel 1 '_Z6vecAddPdS_S_i'
thread block = 384,0,0
GPGPU-Sim uArch: Shader 67 bind to kernel 1 '_Z6vecAddPdS_S_i'
thread block = 385,0,0
GPGPU-Sim uArch: Shader 69 bind to kernel 1 '_Z6vecAddPdS_S_i'
thread block = 386,0,0
GPGPU-Sim uArch: Shader 1 bind to kernel 1 '_Z6vecAddPdS_S_i'
thread block = 387,0,0
GPGPU-Sim uArch: Shader 12 bind to kernel 1 '_Z6vecAddPdS_S_i'
thread block = 388,0,0
GPGPU-Sim uArch: Shader 21 bind to kernel 1 '_Z6vecAddPdS_S_i'
thread block = 389,0,0
GPGPU-Sim uArch: Shader 22 bind to kernel 1 '_Z6vecAddPdS_S_i'
thread block = 390,0,0
GPGPU-Sim uArch: Shader 4 bind to kernel 1 '_Z6vecAddPdS_S_i'
thread block = 391,0,0
GPGPU-Sim uArch: Shader 54 bind to kernel 1 '_Z6vecAddPdS_S_i'
thread block = 392,0,0
GPGPU-Sim uArch: Shader 72 bind to kernel 1 '_Z6vecAddPdS_S_i'
thread block = 393,0,0
GPGPU-Sim uArch: Shader 45 bind to kernel 1 '_Z6vecAddPdS_S_i'
thread block = 394,0,0
GPGPU-Sim uArch: Shader 46 bind to kernel 1 '_Z6vecAddPdS_S_i'
thread block = 395,0,0
GPGPU-Sim uArch: Shader 14 bind to kernel 1 '_Z6vecAddPdS_S_i'
thread block = 396,0,0
GPGPU-Sim uArch: Shader 31 bind to kernel 1 '_Z6vecAddPdS_S_i'
thread block = 397,0,0
GPGPU-Sim uArch: Shader 41 bind to kernel 1 '_Z6vecAddPdS_S_i'
thread block = 398,0,0
GPGPU-Sim uArch: Shader 8 bind to kernel 1 '_Z6vecAddPdS_S_i'
thread block = 399,0,0
GPGPU-Sim uArch: Shader 70 bind to kernel 1 '_Z6vecAddPdS_S_i'
thread block = 400,0,0
GPGPU-Sim uArch: Shader 58 bind to kernel 1 '_Z6vecAddPdS_S_i'
thread block = 401,0,0
GPGPU-Sim uArch: Shader 27 bind to kernel 1 '_Z6vecAddPdS_S_i'
thread block = 402,0,0
GPGPU-Sim uArch: Shader 2 bind to kernel 1 '_Z6vecAddPdS_S_i'
thread block = 403,0,0
GPGPU-Sim uArch: Shader 60 bind to kernel 1 '_Z6vecAddPdS_S_i'
thread block = 404,0,0
GPGPU-Sim uArch: Shader 50 bind to kernel 1 '_Z6vecAddPdS_S_i'
thread block = 405,0,0
GPGPU-Sim uArch: Shader 82 bind to kernel 1 '_Z6vecAddPdS_S_i'
thread block = 406,0,0
GPGPU-Sim uArch: Shader 26 bind to kernel 1 '_Z6vecAddPdS_S_i'
thread block = 407,0,0
GPGPU-Sim uArch: Shader 78 bind to kernel 1 '_Z6vecAddPdS_S_i'
thread block = 408,0,0
GPGPU-Sim uArch: Shader 7 bind to kernel 1 '_Z6vecAddPdS_S_i'
thread block = 409,0,0
GPGPU-Sim uArch: Shader 71 bind to kernel 1 '_Z6vecAddPdS_S_i'
thread block = 410,0,0
GPGPU-Sim uArch: Shader 52 bind to kernel 1 '_Z6vecAddPdS_S_i'
thread block = 411,0,0
GPGPU-Sim uArch: Shader 53 bind to kernel 1 '_Z6vecAddPdS_S_i'
thread block = 412,0,0
GPGPU-Sim uArch: Shader 3 bind to kernel 1 '_Z6vecAddPdS_S_i'
thread block = 413,0,0
GPGPU-Sim uArch: Shader 0 bind to kernel 1 '_Z6vecAddPdS_S_i'
thread block = 414,0,0
GPGPU-Sim uArch: Shader 18 bind to kernel 1 '_Z6vecAddPdS_S_i'
thread block = 415,0,0
GPGPU-Sim uArch: Shader 9 bind to kernel 1 '_Z6vecAddPdS_S_i'
thread block = 416,0,0
GPGPU-Sim uArch: Shader 19 bind to kernel 1 '_Z6vecAddPdS_S_i'
thread block = 417,0,0
GPGPU-Sim uArch: Shader 32 bind to kernel 1 '_Z6vecAddPdS_S_i'
thread block = 418,0,0
GPGPU-Sim uArch: Shader 63 bind to kernel 1 '_Z6vecAddPdS_S_i'
thread block = 419,0,0
GPGPU-Sim uArch: Shader 77 bind to kernel 1 '_Z6vecAddPdS_S_i'
thread block = 420,0,0
GPGPU-Sim uArch: Shader 29 bind to kernel 1 '_Z6vecAddPdS_S_i'
thread block = 421,0,0
GPGPU-Sim uArch: Shader 6 bind to kernel 1 '_Z6vecAddPdS_S_i'
thread block = 422,0,0
GPGPU-Sim uArch: Shader 24 bind to kernel 1 '_Z6vecAddPdS_S_i'
thread block = 423,0,0
GPGPU-Sim uArch: Shader 48 bind to kernel 1 '_Z6vecAddPdS_S_i'
thread block = 424,0,0
GPGPU-Sim uArch: Shader 30 bind to kernel 1 '_Z6vecAddPdS_S_i'
thread block = 425,0,0
GPGPU-Sim uArch: Shader 47 bind to kernel 1 '_Z6vecAddPdS_S_i'
thread block = 426,0,0
GPGPU-Sim uArch: Shader 64 bind to kernel 1 '_Z6vecAddPdS_S_i'
thread block = 427,0,0
GPGPU-Sim uArch: Shader 55 bind to kernel 1 '_Z6vecAddPdS_S_i'
thread block = 428,0,0
GPGPU-Sim uArch: Shader 17 bind to kernel 1 '_Z6vecAddPdS_S_i'
thread block = 429,0,0
GPGPU-Sim uArch: Shader 11 bind to kernel 1 '_Z6vecAddPdS_S_i'
thread block = 430,0,0
GPGPU-Sim uArch: Shader 49 bind to kernel 1 '_Z6vecAddPdS_S_i'
thread block = 431,0,0
GPGPU-Sim uArch: Shader 28 bind to kernel 1 '_Z6vecAddPdS_S_i'
thread block = 432,0,0
GPGPU-Sim uArch: Shader 38 bind to kernel 1 '_Z6vecAddPdS_S_i'
thread block = 433,0,0
GPGPU-Sim uArch: Shader 15 bind to kernel 1 '_Z6vecAddPdS_S_i'
thread block = 434,0,0
GPGPU-Sim uArch: Shader 68 bind to kernel 1 '_Z6vecAddPdS_S_i'
thread block = 435,0,0
GPGPU-Sim uArch: Shader 13 bind to kernel 1 '_Z6vecAddPdS_S_i'
thread block = 436,0,0
GPGPU-Sim uArch: Shader 66 bind to kernel 1 '_Z6vecAddPdS_S_i'
thread block = 437,0,0
GPGPU-Sim uArch: Shader 75 bind to kernel 1 '_Z6vecAddPdS_S_i'
thread block = 438,0,0
GPGPU-Sim uArch: Shader 79 bind to kernel 1 '_Z6vecAddPdS_S_i'
thread block = 439,0,0
GPGPU-Sim uArch: Shader 80 bind to kernel 1 '_Z6vecAddPdS_S_i'
thread block = 440,0,0
GPGPU-Sim uArch: Shader 61 bind to kernel 1 '_Z6vecAddPdS_S_i'
thread block = 441,0,0
GPGPU-Sim uArch: Shader 51 bind to kernel 1 '_Z6vecAddPdS_S_i'
thread block = 442,0,0
GPGPU-Sim uArch: Shader 59 bind to kernel 1 '_Z6vecAddPdS_S_i'
thread block = 443,0,0
GPGPU-Sim uArch: Shader 36 bind to kernel 1 '_Z6vecAddPdS_S_i'
thread block = 444,0,0
GPGPU-Sim uArch: Shader 44 bind to kernel 1 '_Z6vecAddPdS_S_i'
thread block = 445,0,0
GPGPU-Sim uArch: Shader 39 bind to kernel 1 '_Z6vecAddPdS_S_i'
thread block = 446,0,0
GPGPU-Sim uArch: Shader 62 bind to kernel 1 '_Z6vecAddPdS_S_i'
thread block = 447,0,0
GPGPU-Sim uArch: Shader 57 bind to kernel 1 '_Z6vecAddPdS_S_i'
thread block = 448,0,0
GPGPU-Sim uArch: Shader 40 bind to kernel 1 '_Z6vecAddPdS_S_i'
thread block = 449,0,0
GPGPU-Sim uArch: Shader 5 bind to kernel 1 '_Z6vecAddPdS_S_i'
thread block = 450,0,0
GPGPU-Sim uArch: Shader 73 bind to kernel 1 '_Z6vecAddPdS_S_i'
thread block = 451,0,0
GPGPU-Sim uArch: Shader 23 bind to kernel 1 '_Z6vecAddPdS_S_i'
thread block = 452,0,0
GPGPU-Sim uArch: Shader 76 bind to kernel 1 '_Z6vecAddPdS_S_i'
thread block = 453,0,0
GPGPU-Sim uArch: Shader 37 bind to kernel 1 '_Z6vecAddPdS_S_i'
thread block = 454,0,0
GPGPU-Sim uArch: Shader 34 bind to kernel 1 '_Z6vecAddPdS_S_i'
thread block = 455,0,0
GPGPU-Sim uArch: Shader 22 bind to kernel 1 '_Z6vecAddPdS_S_i'
thread block = 456,0,0
GPGPU-Sim uArch: Shader 12 bind to kernel 1 '_Z6vecAddPdS_S_i'
thread block = 457,0,0
GPGPU-Sim uArch: Shader 83 bind to kernel 1 '_Z6vecAddPdS_S_i'
thread block = 458,0,0
GPGPU-Sim uArch: Shader 20 bind to kernel 1 '_Z6vecAddPdS_S_i'
thread block = 459,0,0
GPGPU-Sim uArch: Shader 25 bind to kernel 1 '_Z6vecAddPdS_S_i'
thread block = 460,0,0
GPGPU-Sim uArch: Shader 69 bind to kernel 1 '_Z6vecAddPdS_S_i'
thread block = 461,0,0
GPGPU-Sim uArch: Shader 35 bind to kernel 1 '_Z6vecAddPdS_S_i'
thread block = 462,0,0
GPGPU-Sim uArch: Shader 10 bind to kernel 1 '_Z6vecAddPdS_S_i'
thread block = 463,0,0
GPGPU-Sim uArch: Shader 42 bind to kernel 1 '_Z6vecAddPdS_S_i'
thread block = 464,0,0
GPGPU-Sim uArch: Shader 45 bind to kernel 1 '_Z6vecAddPdS_S_i'
thread block = 465,0,0
GPGPU-Sim uArch: Shader 56 bind to kernel 1 '_Z6vecAddPdS_S_i'
thread block = 466,0,0
GPGPU-Sim uArch: Shader 81 bind to kernel 1 '_Z6vecAddPdS_S_i'
thread block = 467,0,0
GPGPU-Sim uArch: Shader 33 bind to kernel 1 '_Z6vecAddPdS_S_i'
thread block = 468,0,0
GPGPU-Sim uArch: Shader 67 bind to kernel 1 '_Z6vecAddPdS_S_i'
thread block = 469,0,0
GPGPU-Sim uArch: Shader 8 bind to kernel 1 '_Z6vecAddPdS_S_i'
thread block = 470,0,0
GPGPU-Sim uArch: Shader 16 bind to kernel 1 '_Z6vecAddPdS_S_i'
thread block = 471,0,0
GPGPU-Sim uArch: Shader 43 bind to kernel 1 '_Z6vecAddPdS_S_i'
thread block = 472,0,0
GPGPU-Sim uArch: Shader 46 bind to kernel 1 '_Z6vecAddPdS_S_i'
thread block = 473,0,0
GPGPU-Sim uArch: Shader 54 bind to kernel 1 '_Z6vecAddPdS_S_i'
thread block = 474,0,0
GPGPU-Sim uArch: Shader 50 bind to kernel 1 '_Z6vecAddPdS_S_i'
thread block = 475,0,0
GPGPU-Sim uArch: Shader 58 bind to kernel 1 '_Z6vecAddPdS_S_i'
thread block = 476,0,0
GPGPU-Sim uArch: Shader 60 bind to kernel 1 '_Z6vecAddPdS_S_i'
thread block = 477,0,0
GPGPU-Sim uArch: Shader 65 bind to kernel 1 '_Z6vecAddPdS_S_i'
thread block = 478,0,0
GPGPU-Sim uArch: Shader 74 bind to kernel 1 '_Z6vecAddPdS_S_i'
thread block = 479,0,0
GPGPU-Sim uArch: Shader 78 bind to kernel 1 '_Z6vecAddPdS_S_i'
thread block = 480,0,0
GPGPU-Sim uArch: Shader 4 bind to kernel 1 '_Z6vecAddPdS_S_i'
thread block = 481,0,0
GPGPU-Sim uArch: Shader 31 bind to kernel 1 '_Z6vecAddPdS_S_i'
thread block = 482,0,0
GPGPU-Sim uArch: Shader 72 bind to kernel 1 '_Z6vecAddPdS_S_i'
thread block = 483,0,0
GPGPU-Sim uArch: Shader 2 bind to kernel 1 '_Z6vecAddPdS_S_i'
thread block = 484,0,0
GPGPU-Sim uArch: Shader 52 bind to kernel 1 '_Z6vecAddPdS_S_i'
thread block = 485,0,0
GPGPU-Sim uArch: Shader 71 bind to kernel 1 '_Z6vecAddPdS_S_i'
thread block = 486,0,0
GPGPU-Sim uArch: Shader 21 bind to kernel 1 '_Z6vecAddPdS_S_i'
thread block = 487,0,0
GPGPU-Sim uArch: Shader 53 bind to kernel 1 '_Z6vecAddPdS_S_i'
thread block = 488,0,0
GPGPU-Sim uArch: Shader 32 bind to kernel 1 '_Z6vecAddPdS_S_i'
thread block = 489,0,0
GPGPU-Sim uArch: Shader 82 bind to kernel 1 '_Z6vecAddPdS_S_i'
thread block = 490,0,0
GPGPU-Sim uArch: Shader 29 bind to kernel 1 '_Z6vecAddPdS_S_i'
thread block = 491,0,0
GPGPU-Sim uArch: Shader 41 bind to kernel 1 '_Z6vecAddPdS_S_i'
thread block = 492,0,0
GPGPU-Sim uArch: Shader 1 bind to kernel 1 '_Z6vecAddPdS_S_i'
thread block = 493,0,0
GPGPU-Sim uArch: Shader 3 bind to kernel 1 '_Z6vecAddPdS_S_i'
thread block = 494,0,0
GPGPU-Sim uArch: Shader 9 bind to kernel 1 '_Z6vecAddPdS_S_i'
thread block = 495,0,0
GPGPU-Sim uArch: Shader 14 bind to kernel 1 '_Z6vecAddPdS_S_i'
thread block = 496,0,0
GPGPU-Sim uArch: Shader 26 bind to kernel 1 '_Z6vecAddPdS_S_i'
thread block = 497,0,0
GPGPU-Sim uArch: Shader 0 bind to kernel 1 '_Z6vecAddPdS_S_i'
thread block = 498,0,0
GPGPU-Sim uArch: Shader 63 bind to kernel 1 '_Z6vecAddPdS_S_i'
thread block = 499,0,0
GPGPU-Sim uArch: Shader 17 bind to kernel 1 '_Z6vecAddPdS_S_i'
thread block = 500,0,0
GPGPU-Sim uArch: Shader 70 bind to kernel 1 '_Z6vecAddPdS_S_i'
thread block = 501,0,0
GPGPU-Sim uArch: Shader 48 bind to kernel 1 '_Z6vecAddPdS_S_i'
thread block = 502,0,0
GPGPU-Sim uArch: Shader 6 bind to kernel 1 '_Z6vecAddPdS_S_i'
thread block = 503,0,0
GPGPU-Sim uArch: Shader 24 bind to kernel 1 '_Z6vecAddPdS_S_i'
thread block = 504,0,0
GPGPU-Sim uArch: Shader 27 bind to kernel 1 '_Z6vecAddPdS_S_i'
thread block = 505,0,0
GPGPU-Sim uArch: Shader 19 bind to kernel 1 '_Z6vecAddPdS_S_i'
thread block = 506,0,0
GPGPU-Sim uArch: Shader 68 bind to kernel 1 '_Z6vecAddPdS_S_i'
thread block = 507,0,0
GPGPU-Sim uArch: Shader 77 bind to kernel 1 '_Z6vecAddPdS_S_i'
thread block = 508,0,0
GPGPU-Sim uArch: Shader 64 bind to kernel 1 '_Z6vecAddPdS_S_i'
thread block = 509,0,0
GPGPU-Sim uArch: Shader 7 bind to kernel 1 '_Z6vecAddPdS_S_i'
thread block = 510,0,0
GPGPU-Sim uArch: Shader 18 bind to kernel 1 '_Z6vecAddPdS_S_i'
thread block = 511,0,0
GPGPU-Sim uArch: Shader 38 bind to kernel 1 '_Z6vecAddPdS_S_i'
thread block = 512,0,0
GPGPU-Sim uArch: Shader 79 bind to kernel 1 '_Z6vecAddPdS_S_i'
thread block = 513,0,0
GPGPU-Sim uArch: Shader 47 bind to kernel 1 '_Z6vecAddPdS_S_i'
thread block = 514,0,0
GPGPU-Sim uArch: Shader 55 bind to kernel 1 '_Z6vecAddPdS_S_i'
thread block = 515,0,0
GPGPU-Sim uArch: Shader 66 bind to kernel 1 '_Z6vecAddPdS_S_i'
thread block = 516,0,0
GPGPU-Sim uArch: Shader 61 bind to kernel 1 '_Z6vecAddPdS_S_i'
thread block = 517,0,0
GPGPU-Sim uArch: Shader 80 bind to kernel 1 '_Z6vecAddPdS_S_i'
thread block = 518,0,0
GPGPU-Sim uArch: Shader 30 bind to kernel 1 '_Z6vecAddPdS_S_i'
thread block = 519,0,0
GPGPU-Sim uArch: Shader 11 bind to kernel 1 '_Z6vecAddPdS_S_i'
thread block = 520,0,0
GPGPU-Sim uArch: Shader 36 bind to kernel 1 '_Z6vecAddPdS_S_i'
thread block = 521,0,0
GPGPU-Sim uArch: Shader 49 bind to kernel 1 '_Z6vecAddPdS_S_i'
thread block = 522,0,0
GPGPU-Sim uArch: Shader 15 bind to kernel 1 '_Z6vecAddPdS_S_i'
thread block = 523,0,0
GPGPU-Sim uArch: Shader 13 bind to kernel 1 '_Z6vecAddPdS_S_i'
thread block = 524,0,0
GPGPU-Sim uArch: Shader 51 bind to kernel 1 '_Z6vecAddPdS_S_i'
thread block = 525,0,0
GPGPU-Sim uArch: Shader 5 bind to kernel 1 '_Z6vecAddPdS_S_i'
thread block = 526,0,0
GPGPU-Sim uArch: Shader 59 bind to kernel 1 '_Z6vecAddPdS_S_i'
thread block = 527,0,0
GPGPU-Sim uArch: Shader 75 bind to kernel 1 '_Z6vecAddPdS_S_i'
thread block = 528,0,0
GPGPU-Sim uArch: Shader 57 bind to kernel 1 '_Z6vecAddPdS_S_i'
thread block = 529,0,0
GPGPU-Sim uArch: Shader 44 bind to kernel 1 '_Z6vecAddPdS_S_i'
thread block = 530,0,0
GPGPU-Sim uArch: Shader 28 bind to kernel 1 '_Z6vecAddPdS_S_i'
thread block = 531,0,0
GPGPU-Sim uArch: Shader 39 bind to kernel 1 '_Z6vecAddPdS_S_i'
thread block = 532,0,0
GPGPU-Sim uArch: Shader 20 bind to kernel 1 '_Z6vecAddPdS_S_i'
thread block = 533,0,0
GPGPU-Sim uArch: Shader 12 bind to kernel 1 '_Z6vecAddPdS_S_i'
thread block = 534,0,0
GPGPU-Sim uArch: Shader 34 bind to kernel 1 '_Z6vecAddPdS_S_i'
thread block = 535,0,0
GPGPU-Sim uArch: Shader 37 bind to kernel 1 '_Z6vecAddPdS_S_i'
thread block = 536,0,0
GPGPU-Sim uArch: Shader 40 bind to kernel 1 '_Z6vecAddPdS_S_i'
thread block = 537,0,0
GPGPU-Sim uArch: Shader 45 bind to kernel 1 '_Z6vecAddPdS_S_i'
thread block = 538,0,0
GPGPU-Sim uArch: Shader 23 bind to kernel 1 '_Z6vecAddPdS_S_i'
thread block = 539,0,0
GPGPU-Sim uArch: Shader 69 bind to kernel 1 '_Z6vecAddPdS_S_i'
thread block = 540,0,0
GPGPU-Sim uArch: Shader 76 bind to kernel 1 '_Z6vecAddPdS_S_i'
thread block = 541,0,0
GPGPU-Sim uArch: Shader 62 bind to kernel 1 '_Z6vecAddPdS_S_i'
thread block = 542,0,0
GPGPU-Sim uArch: Shader 78 bind to kernel 1 '_Z6vecAddPdS_S_i'
thread block = 543,0,0
GPGPU-Sim uArch: Shader 10 bind to kernel 1 '_Z6vecAddPdS_S_i'
thread block = 544,0,0
GPGPU-Sim uArch: Shader 73 bind to kernel 1 '_Z6vecAddPdS_S_i'
thread block = 545,0,0
GPGPU-Sim uArch: Shader 56 bind to kernel 1 '_Z6vecAddPdS_S_i'
thread block = 546,0,0
GPGPU-Sim uArch: Shader 22 bind to kernel 1 '_Z6vecAddPdS_S_i'
thread block = 547,0,0
GPGPU-Sim uArch: Shader 81 bind to kernel 1 '_Z6vecAddPdS_S_i'
thread block = 548,0,0
GPGPU-Sim uArch: Shader 8 bind to kernel 1 '_Z6vecAddPdS_S_i'
thread block = 549,0,0
GPGPU-Sim uArch: Shader 25 bind to kernel 1 '_Z6vecAddPdS_S_i'
thread block = 550,0,0
GPGPU-Sim uArch: Shader 42 bind to kernel 1 '_Z6vecAddPdS_S_i'
thread block = 551,0,0
GPGPU-Sim uArch: Shader 43 bind to kernel 1 '_Z6vecAddPdS_S_i'
thread block = 552,0,0
GPGPU-Sim uArch: Shader 46 bind to kernel 1 '_Z6vecAddPdS_S_i'
thread block = 553,0,0
GPGPU-Sim uArch: Shader 83 bind to kernel 1 '_Z6vecAddPdS_S_i'
thread block = 554,0,0
GPGPU-Sim uArch: Shader 33 bind to kernel 1 '_Z6vecAddPdS_S_i'
thread block = 555,0,0
GPGPU-Sim uArch: Shader 35 bind to kernel 1 '_Z6vecAddPdS_S_i'
thread block = 556,0,0
GPGPU-Sim uArch: Shader 54 bind to kernel 1 '_Z6vecAddPdS_S_i'
thread block = 557,0,0
GPGPU-Sim uArch: Shader 16 bind to kernel 1 '_Z6vecAddPdS_S_i'
thread block = 558,0,0
GPGPU-Sim uArch: Shader 31 bind to kernel 1 '_Z6vecAddPdS_S_i'
thread block = 559,0,0
GPGPU-Sim uArch: Shader 71 bind to kernel 1 '_Z6vecAddPdS_S_i'
thread block = 560,0,0
GPGPU-Sim uArch: Shader 65 bind to kernel 1 '_Z6vecAddPdS_S_i'
thread block = 561,0,0
GPGPU-Sim uArch: Shader 58 bind to kernel 1 '_Z6vecAddPdS_S_i'
thread block = 562,0,0
GPGPU-Sim uArch: Shader 63 bind to kernel 1 '_Z6vecAddPdS_S_i'
thread block = 563,0,0
GPGPU-Sim uArch: Shader 2 bind to kernel 1 '_Z6vecAddPdS_S_i'
thread block = 564,0,0
GPGPU-Sim uArch: Shader 67 bind to kernel 1 '_Z6vecAddPdS_S_i'
thread block = 565,0,0
GPGPU-Sim uArch: Shader 21 bind to kernel 1 '_Z6vecAddPdS_S_i'
thread block = 566,0,0
GPGPU-Sim uArch: Shader 4 bind to kernel 1 '_Z6vecAddPdS_S_i'
thread block = 567,0,0
GPGPU-Sim uArch: Shader 17 bind to kernel 1 '_Z6vecAddPdS_S_i'
thread block = 568,0,0
GPGPU-Sim uArch: Shader 82 bind to kernel 1 '_Z6vecAddPdS_S_i'
thread block = 569,0,0
GPGPU-Sim uArch: Shader 24 bind to kernel 1 '_Z6vecAddPdS_S_i'
thread block = 570,0,0
GPGPU-Sim uArch: Shader 9 bind to kernel 1 '_Z6vecAddPdS_S_i'
thread block = 571,0,0
GPGPU-Sim uArch: Shader 74 bind to kernel 1 '_Z6vecAddPdS_S_i'
thread block = 572,0,0
GPGPU-Sim uArch: Shader 60 bind to kernel 1 '_Z6vecAddPdS_S_i'
thread block = 573,0,0
GPGPU-Sim uArch: Shader 7 bind to kernel 1 '_Z6vecAddPdS_S_i'
thread block = 574,0,0
GPGPU-Sim uArch: Shader 29 bind to kernel 1 '_Z6vecAddPdS_S_i'
thread block = 575,0,0
GPGPU-Sim uArch: Shader 50 bind to kernel 1 '_Z6vecAddPdS_S_i'
thread block = 576,0,0
GPGPU-Sim uArch: Shader 1 bind to kernel 1 '_Z6vecAddPdS_S_i'
thread block = 577,0,0
GPGPU-Sim uArch: Shader 32 bind to kernel 1 '_Z6vecAddPdS_S_i'
thread block = 578,0,0
[...]
Wasted_Row = 12519 
Idle = 151411 

BW Util Bottlenecks: 
RCDc_limit = 84056 
RCDWRc_limit = 9244 
WTRc_limit = 44685 
RTWc_limit = 51445 
CCDLc_limit = 21437 
rwq = 0 
CCDLc_limit_alone = 15763 
WTRc_limit_alone = 42483 
RTWc_limit_alone = 47973 

Commands details: 
total_CMD = 393322 
n_nop = 328804 
Read = 31232 
Write = 0 
L2_Alloc = 0 
L2_WB = 9888 
n_act = 13273 
n_pre = 13257 
n_ref = 0 
n_req = 33704 
total_req = 41120 

Dual Bus Interface Util: 
issued_total_row = 26530 
issued_total_col = 41120 
Row_Bus_Util =  0.067451 
CoL_Bus_Util = 0.104545 
Either_Row_CoL_Bus_Util = 0.164034 
Issued_on_Two_Bus_Simul_Util = 0.007963 
issued_two_Eff = 0.048545 
queue_avg = 9.074356 


dram_util_bins: 0 0 0 0 0 0 0 0 0 0
dram_eff_bins: 0 0 0 0 0 0 0 0 0 0
mrqq: max=64 avg=9.07436
Memory Partition 7: 
Cache L2_bank_014:
MSHR contents

Cache L2_bank_015:
MSHR contents

In Dram Latency Queue (total = 0): 
DRAM[7]: 16 bks, busW=2 BL=16 CL=24, tRRD=12 tCCD=4, tRCD=24 tRAS=55 tRP=24 tRC=78
n_cmd=393322 n_nop=329249 n_act=13161 n_pre=13145 n_ref_event=0 n_req=33695 n_rd=31232 n_rd_L2_A=0 n_write=0 n_wr_bk=9852 bw_util=0.4178
n_activity=258055 dram_eff=0.6368
bk0: 1968a 277002i bk1: 1968a 274084i bk2: 1968a 276493i bk3: 1968a 274350i bk4: 1964a 277241i bk5: 1964a 274637i bk6: 1968a 277508i bk7: 1968a 274318i bk8: 1968a 279568i bk9: 1968a 275598i bk10: 1940a 276776i bk11: 1940a 274299i bk12: 1920a 278470i bk13: 1920a 277393i bk14: 1920a 281512i bk15: 1920a 280158i 

------------------------------------------------------------------------

Row_Buffer_Locality = 0.609408
Row_Buffer_Locality_read = 0.639857
Row_Buffer_Locality_write = 0.223305
Bank_Level_Parallism = 7.932904
Bank_Level_Parallism_Col = 4.918777
Bank_Level_Parallism_Ready = 2.578952
write_to_read_ratio_blp_rw_average = 0.249009
GrpLevelPara = 2.842593 

BW Util details:
bwutil = 0.417815 
total_CMD = 393322 
util_bw = 164336 
Wasted_Col = 64299 
Wasted_Row = 12859 
Idle = 151828 

BW Util Bottlenecks: 
RCDc_limit = 83048 
RCDWRc_limit = 9318 
WTRc_limit = 47440 
RTWc_limit = 53947 
CCDLc_limit = 21423 
rwq = 0 
CCDLc_limit_alone = 15036 
WTRc_limit_alone = 44942 
RTWc_limit_alone = 50058 

Commands details: 
total_CMD = 393322 
n_nop = 329249 
Read = 31232 
Write = 0 
L2_Alloc = 0 
L2_WB = 9852 
n_act = 13161 
n_pre = 13145 
n_ref = 0 
n_req = 33695 
total_req = 41084 

Dual Bus Interface Util: 
issued_total_row = 26306 
issued_total_col = 41084 
Row_Bus_Util =  0.066882 
CoL_Bus_Util = 0.104454 
Either_Row_CoL_Bus_Util = 0.162902 
Issued_on_Two_Bus_Simul_Util = 0.008433 
issued_two_Eff = 0.051769 
queue_avg = 9.356260 


dram_util_bins: 0 0 0 0 0 0 0 0 0 0
dram_eff_bins: 0 0 0 0 0 0 0 0 0 0
mrqq: max=64 avg=9.35626
Memory Partition 8: 
Cache L2_bank_016:
MSHR contents

Cache L2_bank_017:
MSHR contents

In Dram Latency Queue (total = 3): 
Ready @ 138649 -   mf: uid=2919896, sid4294967295:w4294967295, part=8, addr=0x7fd4e3685100, store, size=128, L2_WRBK  status = IN_PARTITION_DRAM_LATENCY_QUEUE (138395), 
Ready @ 138661 -   mf: uid=2919911, sid4294967295:w4294967295, part=8, addr=0x7fd4e36b6880, store, size=128, L2_WRBK  status = IN_PARTITION_DRAM_LATENCY_QUEUE (138407), 
Ready @ 138665 -   mf: uid=2919921, sid4294967295:w4294967295, part=8, addr=0x7fd4e36b6800, store, size=128, L2_WRBK  status = IN_PARTITION_DRAM_LATENCY_QUEUE (138411), 
DRAM[8]: 16 bks, busW=2 BL=16 CL=24, tRRD=12 tCCD=4, tRCD=24 tRAS=55 tRP=24 tRC=78
n_cmd=393322 n_nop=328865 n_act=13236 n_pre=13220 n_ref_event=0 n_req=33751 n_rd=31280 n_rd_L2_A=0 n_write=0 n_wr_bk=9881 bw_util=0.4186
n_activity=257747 dram_eff=0.6388
bk0: 1968a 275788i bk1: 1968a 274933i bk2: 1968a 281695i bk3: 1968a 281457i bk4: 1984a 270597i bk5: 1984a 268299i bk6: 1968a 278191i bk7: 1968a 274396i bk8: 1968a 277186i bk9: 1968a 275267i bk10: 1944a 281958i bk11: 1944a 280268i bk12: 1920a 279902i bk13: 1920a 277048i bk14: 1920a 279209i bk15: 1920a 275592i 

------------------------------------------------------------------------

Row_Buffer_Locality = 0.607834
Row_Buffer_Locality_read = 0.638555
Row_Buffer_Locality_write = 0.218940
Bank_Level_Parallism = 7.903269
Bank_Level_Parallism_Col = 4.894758
Bank_Level_Parallism_Ready = 2.556816
write_to_read_ratio_blp_rw_average = 0.249166
GrpLevelPara = 2.825994 

BW Util details:
bwutil = 0.418599 
total_CMD = 393322 
util_bw = 164644 
Wasted_Col = 64503 
Wasted_Row = 12771 
Idle = 151404 

BW Util Bottlenecks: 
RCDc_limit = 82615 
RCDWRc_limit = 9546 
WTRc_limit = 48451 
RTWc_limit = 51681 
CCDLc_limit = 21737 
rwq = 0 
CCDLc_limit_alone = 15772 
WTRc_limit_alone = 45794 
RTWc_limit_alone = 48373 

Commands details: 
total_CMD = 393322 
n_nop = 328865 
Read = 31280 
Write = 0 
L2_Alloc = 0 
L2_WB = 9881 
n_act = 13236 
n_pre = 13220 
n_ref = 0 
n_req = 33751 
total_req = 41161 

Dual Bus Interface Util: 
issued_total_row = 26456 
issued_total_col = 41161 
Row_Bus_Util =  0.067263 
CoL_Bus_Util = 0.104650 
Either_Row_CoL_Bus_Util = 0.163878 
Issued_on_Two_Bus_Simul_Util = 0.008034 
issued_two_Eff = 0.049025 
queue_avg = 9.334769 


dram_util_bins: 0 0 0 0 0 0 0 0 0 0
dram_eff_bins: 0 0 0 0 0 0 0 0 0 0
mrqq: max=64 avg=9.33477
Memory Partition 9: 
Cache L2_bank_018:
MSHR contents

Cache L2_bank_019:
MSHR contents

In Dram Latency Queue (total = 2): 
Ready @ 138755 -   mf: uid=2919930, sid4294967295:w4294967295, part=9, addr=0x7fd4e36ec280, store, size=128, L2_WRBK  status = IN_PARTITION_DRAM_LATENCY_QUEUE (138501), 
Ready @ 138759 -   mf: uid=2919932, sid4294967295:w4294967295, part=9, addr=0x7fd4e36ec200, store, size=128, L2_WRBK  status = IN_PARTITION_DRAM_LATENCY_QUEUE (138505), 
DRAM[9]: 16 bks, busW=2 BL=16 CL=24, tRRD=12 tCCD=4, tRCD=24 tRAS=55 tRP=24 tRC=78
n_cmd=393322 n_nop=328560 n_act=13358 n_pre=13342 n_ref_event=0 n_req=33758 n_rd=31280 n_rd_L2_A=0 n_write=0 n_wr_bk=9912 bw_util=0.4189
n_activity=259797 dram_eff=0.6342
bk0: 1968a 272783i bk1: 1968a 272172i bk2: 1968a 276108i bk3: 1968a 273982i bk4: 1984a 273754i bk5: 1984a 270897i bk6: 1968a 273651i bk7: 1968a 270822i bk8: 1968a 278202i bk9: 1968a 275654i bk10: 1944a 279716i bk11: 1944a 276742i bk12: 1920a 283403i bk13: 1920a 281353i bk14: 1920a 282990i bk15: 1920a 278717i 

------------------------------------------------------------------------

Row_Buffer_Locality = 0.604301
Row_Buffer_Locality_read = 0.635678
Row_Buffer_Locality_write = 0.208232
Bank_Level_Parallism = 7.894723
Bank_Level_Parallism_Col = 4.914879
Bank_Level_Parallism_Ready = 2.546216
write_to_read_ratio_blp_rw_average = 0.249710
GrpLevelPara = 2.854155 

BW Util details:
bwutil = 0.418914 
total_CMD = 393322 
util_bw = 164768 
Wasted_Col = 65325 
Wasted_Row = 13477 
Idle = 149752 

BW Util Bottlenecks: 
RCDc_limit = 84135 
RCDWRc_limit = 9591 
WTRc_limit = 49193 
RTWc_limit = 56641 
CCDLc_limit = 21508 
rwq = 0 
CCDLc_limit_alone = 15266 
WTRc_limit_alone = 46725 
RTWc_limit_alone = 52867 

Commands details: 
total_CMD = 393322 
n_nop = 328560 
Read = 31280 
Write = 0 
L2_Alloc = 0 
L2_WB = 9912 
n_act = 13358 
n_pre = 13342 
n_ref = 0 
n_req = 33758 
total_req = 41192 

Dual Bus Interface Util: 
issued_total_row = 26700 
issued_total_col = 41192 
Row_Bus_Util =  0.067883 
CoL_Bus_Util = 0.104728 
Either_Row_CoL_Bus_Util = 0.164654 
Issued_on_Two_Bus_Simul_Util = 0.007958 
issued_two_Eff = 0.048331 
queue_avg = 9.504015 


dram_util_bins: 0 0 0 0 0 0 0 0 0 0
dram_eff_bins: 0 0 0 0 0 0 0 0 0 0
mrqq: max=64 avg=9.50401
Memory Partition 10: 
Cache L2_bank_020:
MSHR contents

Cache L2_bank_021:
MSHR contents

In Dram Latency Queue (total = 0): 
DRAM[10]: 16 bks, busW=2 BL=16 CL=24, tRRD=12 tCCD=4, tRCD=24 tRAS=55 tRP=24 tRC=78
n_cmd=393322 n_nop=328560 n_act=13476 n_pre=13460 n_ref_event=0 n_req=33758 n_rd=31280 n_rd_L2_A=0 n_write=0 n_wr_bk=9912 bw_util=0.4189
n_activity=260006 dram_eff=0.6337
bk0: 1968a 276605i bk1: 1968a 273860i bk2: 1968a 278990i bk3: 1968a 275748i bk4: 1984a 276569i bk5: 1984a 273065i bk6: 1968a 272475i bk7: 1968a 271919i bk8: 1968a 273857i bk9: 1968a 272134i bk10: 1944a 273851i bk11: 1944a 272762i bk12: 1920a 278298i bk13: 1920a 277039i bk14: 1920a 279914i bk15: 1920a 278739i 

------------------------------------------------------------------------

Row_Buffer_Locality = 0.600806
Row_Buffer_Locality_read = 0.631298
Row_Buffer_Locality_write = 0.215900
Bank_Level_Parallism = 7.931989
Bank_Level_Parallism_Col = 4.833547
Bank_Level_Parallism_Ready = 2.472390
write_to_read_ratio_blp_rw_average = 0.256122
GrpLevelPara = 2.823146 

BW Util details:
bwutil = 0.418914 
total_CMD = 393322 
util_bw = 164768 
Wasted_Col = 66699 
Wasted_Row = 12866 
Idle = 148989 

BW Util Bottlenecks: 
RCDc_limit = 87909 
RCDWRc_limit = 9039 
WTRc_limit = 45945 
RTWc_limit = 58244 
CCDLc_limit = 22451 
rwq = 0 
CCDLc_limit_alone = 15846 
WTRc_limit_alone = 43459 
RTWc_limit_alone = 54125 

Commands details: 
total_CMD = 393322 
n_nop = 328560 
Read = 31280 
Write = 0 
L2_Alloc = 0 
L2_WB = 9912 
n_act = 13476 
n_pre = 13460 
n_ref = 0 
n_req = 33758 
total_req = 41192 

Dual Bus Interface Util: 
issued_total_row = 26936 
issued_total_col = 41192 
Row_Bus_Util =  0.068483 
CoL_Bus_Util = 0.104728 
Either_Row_CoL_Bus_Util = 0.164654 
Issued_on_Two_Bus_Simul_Util = 0.008558 
issued_two_Eff = 0.051975 
queue_avg = 9.806167 


dram_util_bins: 0 0 0 0 0 0 0 0 0 0
dram_eff_bins: 0 0 0 0 0 0 0 0 0 0
mrqq: max=64 avg=9.80617
Memory Partition 11: 
Cache L2_bank_022:
MSHR contents

Cache L2_bank_023:
MSHR contents

In Dram Latency Queue (total = 2): 
Ready @ 138747 -   mf: uid=2919928, sid4294967295:w4294967295, part=11, addr=0x7fd4e36b6b80, store, size=128, L2_WRBK  status = IN_PARTITION_DRAM_LATENCY_QUEUE (138493), 
Ready @ 138751 -   mf: uid=2919929, sid4294967295:w4294967295, part=11, addr=0x7fd4e36b6b00, store, size=128, L2_WRBK  status = IN_PARTITION_DRAM_LATENCY_QUEUE (138497), 
DRAM[11]: 16 bks, busW=2 BL=16 CL=24, tRRD=12 tCCD=4, tRCD=24 tRAS=55 tRP=24 tRC=78
n_cmd=393322 n_nop=328938 n_act=13189 n_pre=13173 n_ref_event=0 n_req=33756 n_rd=31280 n_rd_L2_A=0 n_write=0 n_wr_bk=9904 bw_util=0.4188
n_activity=257168 dram_eff=0.6406
bk0: 1968a 275829i bk1: 1968a 273000i bk2: 1968a 275656i bk3: 1968a 276724i bk4: 1984a 275960i bk5: 1984a 273805i bk6: 1968a 278005i bk7: 1968a 274644i bk8: 1968a 278217i bk9: 1968a 276011i bk10: 1944a 278206i bk11: 1944a 275067i bk12: 1920a 284660i bk13: 1920a 281755i bk14: 1920a 278738i bk15: 1920a 274114i 

------------------------------------------------------------------------

Row_Buffer_Locality = 0.609284
Row_Buffer_Locality_read = 0.640217
Row_Buffer_Locality_write = 0.218498
Bank_Level_Parallism = 7.936145
Bank_Level_Parallism_Col = 4.913608
Bank_Level_Parallism_Ready = 2.564649
write_to_read_ratio_blp_rw_average = 0.242746
GrpLevelPara = 2.836877 

BW Util details:
bwutil = 0.418832 
total_CMD = 393322 
util_bw = 164736 
Wasted_Col = 63788 
Wasted_Row = 12732 
Idle = 152066 

BW Util Bottlenecks: 
RCDc_limit = 83106 
RCDWRc_limit = 9117 
WTRc_limit = 46839 
RTWc_limit = 52966 
CCDLc_limit = 21397 
rwq = 0 
CCDLc_limit_alone = 15506 
WTRc_limit_alone = 44309 
RTWc_limit_alone = 49605 

Commands details: 
total_CMD = 393322 
n_nop = 328938 
Read = 31280 
Write = 0 
L2_Alloc = 0 
L2_WB = 9904 
n_act = 13189 
n_pre = 13173 
n_ref = 0 
n_req = 33756 
total_req = 41184 

Dual Bus Interface Util: 
issued_total_row = 26362 
issued_total_col = 41184 
Row_Bus_Util =  0.067024 
CoL_Bus_Util = 0.104708 
Either_Row_CoL_Bus_Util = 0.163693 
Issued_on_Two_Bus_Simul_Util = 0.008039 
issued_two_Eff = 0.049112 
queue_avg = 9.706566 


dram_util_bins: 0 0 0 0 0 0 0 0 0 0
dram_eff_bins: 0 0 0 0 0 0 0 0 0 0
mrqq: max=64 avg=9.70657

========= L2 cache stats =========
L2_cache_bank[0]: Access = 46868, Miss = 46868, Miss_rate = 1.000, Pending_hits = 0, Reservation_fails = 5593
L2_cache_bank[1]: Access = 46868, Miss = 46868, Miss_rate = 1.000, Pending_hits = 0, Reservation_fails = 3528
L2_cache_bank[2]: Access = 46868, Miss = 46868, Miss_rate = 1.000, Pending_hits = 0, Reservation_fails = 4963
L2_cache_bank[3]: Access = 46868, Miss = 46868, Miss_rate = 1.000, Pending_hits = 0, Reservation_fails = 4516
L2_cache_bank[4]: Access = 46868, Miss = 46868, Miss_rate = 1.000, Pending_hits = 0, Reservation_fails = 3800
L2_cache_bank[5]: Access = 46868, Miss = 46868, Miss_rate = 1.000, Pending_hits = 0, Reservation_fails = 7271
L2_cache_bank[6]: Access = 46868, Miss = 46868, Miss_rate = 1.000, Pending_hits = 0, Reservation_fails = 2719
L2_cache_bank[7]: Access = 46868, Miss = 46868, Miss_rate = 1.000, Pending_hits = 0, Reservation_fails = 7570
L2_cache_bank[8]: Access = 23432, Miss = 23432, Miss_rate = 1.000, Pending_hits = 0, Reservation_fails = 645
L2_cache_bank[9]: Access = 23432, Miss = 23432, Miss_rate = 1.000, Pending_hits = 0, Reservation_fails = 234
L2_cache_bank[10]: Access = 23432, Miss = 23432, Miss_rate = 1.000, Pending_hits = 0, Reservation_fails = 195
L2_cache_bank[11]: Access = 23432, Miss = 23432, Miss_rate = 1.000, Pending_hits = 0, Reservation_fails = 765
L2_cache_bank[12]: Access = 23428, Miss = 23428, Miss_rate = 1.000, Pending_hits = 0, Reservation_fails = 362
L2_cache_bank[13]: Access = 23428, Miss = 23428, Miss_rate = 1.000, Pending_hits = 0, Reservation_fails = 935
L2_cache_bank[14]: Access = 23428, Miss = 23428, Miss_rate = 1.000, Pending_hits = 0, Reservation_fails = 552
L2_cache_bank[15]: Access = 23428, Miss = 23428, Miss_rate = 1.000, Pending_hits = 0, Reservation_fails = 751
L2_cache_bank[16]: Access = 23452, Miss = 23452, Miss_rate = 1.000, Pending_hits = 0, Reservation_fails = 27
L2_cache_bank[17]: Access = 23452, Miss = 23452, Miss_rate = 1.000, Pending_hits = 0, Reservation_fails = 945
L2_cache_bank[18]: Access = 23452, Miss = 23452, Miss_rate = 1.000, Pending_hits = 0, Reservation_fails = 97
L2_cache_bank[19]: Access = 23452, Miss = 23452, Miss_rate = 1.000, Pending_hits = 0, Reservation_fails = 661
L2_cache_bank[20]: Access = 23452, Miss = 23452, Miss_rate = 1.000, Pending_hits = 0, Reservation_fails = 631
L2_cache_bank[21]: Access = 23452, Miss = 23452, Miss_rate = 1.000, Pending_hits = 0, Reservation_fails = 14
L2_cache_bank[22]: Access = 23452, Miss = 23452, Miss_rate = 1.000, Pending_hits = 0, Reservation_fails = 642
L2_cache_bank[23]: Access = 23452, Miss = 23452, Miss_rate = 1.000, Pending_hits = 0, Reservation_fails = 354
L2_total_cache_accesses = 750000
L2_total_cache_misses = 750000
L2_total_cache_miss_rate = 1.0000
L2_total_cache_pending_hits = 0
L2_total_cache_reservation_fails = 47770
L2_total_cache_breakdown:
	L2_cache_stats_breakdown[GLOBAL_ACC_R][HIT] = 0
	L2_cache_stats_breakdown[GLOBAL_ACC_R][HIT_RESERVED] = 0
	L2_cache_stats_breakdown[GLOBAL_ACC_R][MISS] = 125000
	L2_cache_stats_breakdown[GLOBAL_ACC_R][RESERVATION_FAIL] = 47770
	L2_cache_stats_breakdown[GLOBAL_ACC_R][SECTOR_MISS] = 375000
	L2_cache_stats_breakdown[GLOBAL_ACC_R][MSHR_HIT] = 0
	L2_cache_stats_breakdown[LOCAL_ACC_R][HIT] = 0
	L2_cache_stats_breakdown[LOCAL_ACC_R][HIT_RESERVED] = 0
	L2_cache_stats_breakdown[LOCAL_ACC_R][MISS] = 0
	L2_cache_stats_breakdown[LOCAL_ACC_R][RESERVATION_FAIL] = 0
	L2_cache_stats_breakdown[LOCAL_ACC_R][SECTOR_MISS] = 0
	L2_cache_stats_breakdown[LOCAL_ACC_R][MSHR_HIT] = 0
	L2_cache_stats_breakdown[CONST_ACC_R][HIT] = 0
	L2_cache_stats_breakdown[CONST_ACC_R][HIT_RESERVED] = 0
	L2_cache_stats_breakdown[CONST_ACC_R][MISS] = 0
	L2_cache_stats_breakdown[CONST_ACC_R][RESERVATION_FAIL] = 0
	L2_cache_stats_breakdown[CONST_ACC_R][SECTOR_MISS] = 0
	L2_cache_stats_breakdown[CONST_ACC_R][MSHR_HIT] = 0
	L2_cache_stats_breakdown[TEXTURE_ACC_R][HIT] = 0
	L2_cache_stats_breakdown[TEXTURE_ACC_R][HIT_RESERVED] = 0
	L2_cache_stats_breakdown[TEXTURE_ACC_R][MISS] = 0
	L2_cache_stats_breakdown[TEXTURE_ACC_R][RESERVATION_FAIL] = 0
	L2_cache_stats_breakdown[TEXTURE_ACC_R][SECTOR_MISS] = 0
	L2_cache_stats_breakdown[TEXTURE_ACC_R][MSHR_HIT] = 0
	L2_cache_stats_breakdown[GLOBAL_ACC_W][HIT] = 0
	L2_cache_stats_breakdown[GLOBAL_ACC_W][HIT_RESERVED] = 0
	L2_cache_stats_breakdown[GLOBAL_ACC_W][MISS] = 62500
	L2_cache_stats_breakdown[GLOBAL_ACC_W][RESERVATION_FAIL] = 0
	L2_cache_stats_breakdown[GLOBAL_ACC_W][SECTOR_MISS] = 187500
	L2_cache_stats_breakdown[GLOBAL_ACC_W][MSHR_HIT] = 0
	L2_cache_stats_breakdown[LOCAL_ACC_W][HIT] = 0
	L2_cache_stats_breakdown[LOCAL_ACC_W][HIT_RESERVED] = 0
	L2_cache_stats_breakdown[LOCAL_ACC_W][MISS] = 0
	L2_cache_stats_breakdown[LOCAL_ACC_W][RESERVATION_FAIL] = 0
	L2_cache_stats_breakdown[LOCAL_ACC_W][SECTOR_MISS] = 0
	L2_cache_stats_breakdown[LOCAL_ACC_W][MSHR_HIT] = 0
	L2_cache_stats_breakdown[L1_WRBK_ACC][HIT] = 0
	L2_cache_stats_breakdown[L1_WRBK_ACC][HIT_RESERVED] = 0
	L2_cache_stats_breakdown[L1_WRBK_ACC][MISS] = 0
	L2_cache_stats_breakdown[L1_WRBK_ACC][RESERVATION_FAIL] = 0
	L2_cache_stats_breakdown[L1_WRBK_ACC][SECTOR_MISS] = 0
	L2_cache_stats_breakdown[L1_WRBK_ACC][MSHR_HIT] = 0
	L2_cache_stats_breakdown[L2_WRBK_ACC][HIT] = 0
	L2_cache_stats_breakdown[L2_WRBK_ACC][HIT_RESERVED] = 0
	L2_cache_stats_breakdown[L2_WRBK_ACC][MISS] = 0
	L2_cache_stats_breakdown[L2_WRBK_ACC][RESERVATION_FAIL] = 0
	L2_cache_stats_breakdown[L2_WRBK_ACC][SECTOR_MISS] = 0
	L2_cache_stats_breakdown[L2_WRBK_ACC][MSHR_HIT] = 0
	L2_cache_stats_breakdown[INST_ACC_R][HIT] = 0
	L2_cache_stats_breakdown[INST_ACC_R][HIT_RESERVED] = 0
	L2_cache_stats_breakdown[INST_ACC_R][MISS] = 0
	L2_cache_stats_breakdown[INST_ACC_R][RESERVATION_FAIL] = 0
	L2_cache_stats_breakdown[INST_ACC_R][SECTOR_MISS] = 0
	L2_cache_stats_breakdown[INST_ACC_R][MSHR_HIT] = 0
	L2_cache_stats_breakdown[L1_WR_ALLOC_R][HIT] = 0
	L2_cache_stats_breakdown[L1_WR_ALLOC_R][HIT_RESERVED] = 0
	L2_cache_stats_breakdown[L1_WR_ALLOC_R][MISS] = 0
	L2_cache_stats_breakdown[L1_WR_ALLOC_R][RESERVATION_FAIL] = 0
	L2_cache_stats_breakdown[L1_WR_ALLOC_R][SECTOR_MISS] = 0
	L2_cache_stats_breakdown[L1_WR_ALLOC_R][MSHR_HIT] = 0
	L2_cache_stats_breakdown[L2_WR_ALLOC_R][HIT] = 0
	L2_cache_stats_breakdown[L2_WR_ALLOC_R][HIT_RESERVED] = 0
	L2_cache_stats_breakdown[L2_WR_ALLOC_R][MISS] = 0
	L2_cache_stats_breakdown[L2_WR_ALLOC_R][RESERVATION_FAIL] = 0
	L2_cache_stats_breakdown[L2_WR_ALLOC_R][SECTOR_MISS] = 0
	L2_cache_stats_breakdown[L2_WR_ALLOC_R][MSHR_HIT] = 0
	L2_cache_stats_breakdown[GLOBAL_ACC_R][TOTAL_ACCESS] = 500000
	L2_cache_stats_breakdown[GLOBAL_ACC_W][TOTAL_ACCESS] = 250000
L2_total_cache_reservation_fail_breakdown:
	L2_cache_stats_fail_breakdown[GLOBAL_ACC_R][MSHR_ENRTY_FAIL] = 47770
L2_cache_data_port_util = 0.020
L2_cache_fill_port_util = 0.150

icnt_total_pkts_mem_to_simt=750000
icnt_total_pkts_simt_to_mem=750000
LD_mem_lat_dist  0 0 0 0 0 0 0 0 0 0 0 0 0 0 0 0 0 0 0 0 0 0 0 0 0 0 0
ST_mem_lat_dist  0 0 0 0 0 0 0 0 0 0 0 0 0 0 0 0 0 0 0 0 0 0 0 0 0 0 0
----------------------------Interconnect-DETAILS--------------------------------
Req_Network_injected_packets_num = 750000
Req_Network_cycles = 138647
Req_Network_injected_packets_per_cycle =       5.4094 
Req_Network_conflicts_per_cycle =      57.0001
Req_Network_conflicts_per_cycle_util =      59.4010
Req_Bank_Level_Parallism =       5.6373
Req_Network_in_buffer_full_per_cycle =       0.0000
Req_Network_in_buffer_avg_util =     130.3801
Req_Network_out_buffer_full_per_cycle =       1.0199
Req_Network_out_buffer_avg_util =      82.4868

Reply_Network_injected_packets_num = 750000
Reply_Network_cycles = 138647
Reply_Network_injected_packets_per_cycle =        5.4094
Reply_Network_conflicts_per_cycle =        1.1662
Reply_Network_conflicts_per_cycle_util =       1.2227
Reply_Bank_Level_Parallism =       5.6713
Reply_Network_in_buffer_full_per_cycle =       0.0000
Reply_Network_in_buffer_avg_util =       0.1443
Reply_Network_out_buffer_full_per_cycle =       0.0000
Reply_Network_out_buffer_avg_util =       0.0644
----------------------------END-of-Interconnect-DETAILS-------------------------


gpgpu_simulation_time = 0 days, 0 hrs, 6 min, 40 sec (400 sec)
gpgpu_simulation_rate = 55010 (inst/sec)
gpgpu_simulation_rate = 346 (cycle/sec)
gpgpu_silicon_slowdown = 4075144x
GPGPU-Sim: *** simulation thread exiting ***
GPGPU-Sim: *** exit detected ***
