GPGPU-Sim version 4.2.0 (build gpgpu-sim_git-commit-13c67115070dc2f0876254a790d0238073ca364a-modified_590.0) configured with AccelWattch.

----------------------------------------------------------------------------
INFO - If you only care about PTX execution, ignore this message. GPGPU-Sim supports PTX execution in modern CUDA.
If you want to run PTXPLUS (sm_1x SASS) with a modern card configuration - set the envronment variable
$PTXAS_CUDA_INSTALL_PATH to point a CUDA version compabible with your card configurations (i.e. 8+ for PASCAL, 9+ for VOLTA etc..)
For example: "export $PTXAS_CUDA_INSTALL_PATH=/usr/local/cuda-9.1"

The following text describes why:
If you are using PTXPLUS, only sm_1x is supported and it requires that the app and simulator binaries are compiled in CUDA 4.2 or less.
The simulator requires it since CUDA headers desribe struct sizes in the exec which change from gen to gen.
The apps require 4.2 because new versions of CUDA tools have dropped parsing support for generating sm_1x
When running using modern config (i.e. volta) and PTXPLUS with CUDA 4.2, the $PTXAS_CUDA_INSTALL_PATH env variable is required to get proper register usage
(and hence occupancy) using a version of CUDA that knows the register usage on the real card.

----------------------------------------------------------------------------
setup_environment succeeded
Accel-Sim [build accelsim-commit-e02c99dbadefc0b9dc95317100be2a446eec142c_modified_0.0]

        *** GPGPU-Sim Simulator Version 4.2.0  [build gpgpu-sim_git-commit-13c67115070dc2f0876254a790d0238073ca364a_modified_0.0] ***


GPGPU-Sim: Configuration options:

-save_embedded_ptx                      0 # saves ptx files embedded in binary as <n>.ptx
-keep                                   0 # keep intermediate files created by GPGPU-Sim when interfacing with external programs
-gpgpu_ptx_save_converted_ptxplus                    0 # Saved converted ptxplus to a file
-gpgpu_occupancy_sm_number                   60 # The SM number to pass to ptxas when getting register usage for computing GPU occupancy. This parameter is required in the config.
-ptx_opcode_latency_int         4,13,4,5,145 # Opcode latencies for integers <ADD,MAX,MUL,MAD,DIV,SHFL>Default 1,1,19,25,145,32
-ptx_opcode_latency_fp          4,13,4,5,39 # Opcode latencies for single precision floating points <ADD,MAX,MUL,MAD,DIV>Default 1,1,1,1,30
-ptx_opcode_latency_dp         8,19,8,8,330 # Opcode latencies for double precision floating points <ADD,MAX,MUL,MAD,DIV>Default 8,8,8,8,335
-ptx_opcode_latency_sfu                    8 # Opcode latencies for SFU instructionsDefault 8
-ptx_opcode_latency_tesnor                   64 # Opcode latencies for Tensor instructionsDefault 64
-ptx_opcode_initiation_int            1,2,2,2,8 # Opcode initiation intervals for integers <ADD,MAX,MUL,MAD,DIV,SHFL>Default 1,1,4,4,32,4
-ptx_opcode_initiation_fp            1,2,1,1,4 # Opcode initiation intervals for single precision floating points <ADD,MAX,MUL,MAD,DIV>Default 1,1,1,1,5
-ptx_opcode_initiation_dp          1,2,1,1,130 # Opcode initiation intervals for double precision floating points <ADD,MAX,MUL,MAD,DIV>Default 8,8,8,8,130
-ptx_opcode_initiation_sfu                    8 # Opcode initiation intervals for sfu instructionsDefault 8
-ptx_opcode_initiation_tensor                   64 # Opcode initiation intervals for tensor instructionsDefault 64
-cdp_latency         7200,8000,100,12000,1600 # CDP API latency <cudaStreamCreateWithFlags, cudaGetParameterBufferV2_init_perWarp, cudaGetParameterBufferV2_perKernel, cudaLaunchDeviceV2_init_perWarp, cudaLaunchDevicV2_perKernel>Default 7200,8000,100,12000,1600
-network_mode                           1 # Interconnection network mode
-inter_config_file   config_fermi_islip.icnt # Interconnection network config file
-icnt_in_buffer_limit                   64 # in_buffer_limit
-icnt_out_buffer_limit                   64 # out_buffer_limit
-icnt_subnets                           2 # subnets
-icnt_arbiter_algo                      1 # arbiter_algo
-icnt_verbose                           0 # inct_verbose
-icnt_grant_cycles                      1 # grant_cycles
-gpgpu_ptx_use_cuobjdump                    1 # Use cuobjdump to extract ptx and sass from binaries
-gpgpu_experimental_lib_support                    0 # Try to extract code from cuda libraries [Broken because of unknown cudaGetExportTable]
-checkpoint_option                      0 #  checkpointing flag (0 = no checkpoint)
-checkpoint_kernel                      1 #  checkpointing during execution of which kernel (1- 1st kernel)
-checkpoint_CTA                         0 #  checkpointing after # of CTA (< less than total CTA)
-resume_option                          0 #  resume flag (0 = no resume)
-resume_kernel                          0 #  Resume from which kernel (1= 1st kernel)
-resume_CTA                             0 #  resume from which CTA 
-checkpoint_CTA_t                       0 #  resume from which CTA 
-checkpoint_insn_Y                      0 #  resume from which CTA 
-gpgpu_ptx_convert_to_ptxplus                    0 # Convert SASS (native ISA) to ptxplus and run ptxplus
-gpgpu_ptx_force_max_capability                   60 # Force maximum compute capability
-gpgpu_ptx_inst_debug_to_file                    0 # Dump executed instructions' debug information to file
-gpgpu_ptx_inst_debug_file       inst_debug.txt # Executed instructions' debug output file
-gpgpu_ptx_inst_debug_thread_uid                    1 # Thread UID for executed instructions' debug output
-gpgpu_simd_model                       1 # 1 = post-dominator
-gpgpu_shader_core_pipeline              2048:32 # shader core pipeline config, i.e., {<nthread>:<warpsize>}
-gpgpu_tex_cache:l1  N:16:128:24,L:R:m:N:L,F:128:4,128:2 # per-shader L1 texture cache  (READ-ONLY) config  {<nsets>:<bsize>:<assoc>,<rep>:<wr>:<alloc>:<wr_alloc>,<mshr>:<N>:<merge>,<mq>:<rf>}
-gpgpu_const_cache:l1 N:128:64:2,L:R:f:N:L,A:2:64,4 # per-shader L1 constant memory cache  (READ-ONLY) config  {<nsets>:<bsize>:<assoc>,<rep>:<wr>:<alloc>:<wr_alloc>,<mshr>:<N>:<merge>,<mq>} 
-gpgpu_cache:il1     N:8:128:4,L:R:f:N:L,A:2:48,4 # shader L1 instruction cache config  {<nsets>:<bsize>:<assoc>,<rep>:<wr>:<alloc>:<wr_alloc>,<mshr>:<N>:<merge>,<mq>} 
-gpgpu_cache:dl1     N:64:128:6,L:L:m:N:H,A:128:8,8 # per-shader L1 data cache config  {<nsets>:<bsize>:<assoc>,<rep>:<wr>:<alloc>:<wr_alloc>,<mshr>:<N>:<merge>,<mq> | none}
-gpgpu_l1_cache_write_ratio                    0 # L1D write ratio
-gpgpu_l1_banks                         1 # The number of L1 cache banks
-gpgpu_l1_banks_byte_interleaving                   32 # l1 banks byte interleaving granularity
-gpgpu_l1_banks_hashing_function                    0 # l1 banks hashing function
-gpgpu_l1_latency                       1 # L1 Hit Latency
-gpgpu_smem_latency                     3 # smem Latency
-gpgpu_cache:dl1PrefL1                 none # per-shader L1 data cache config  {<nsets>:<bsize>:<assoc>,<rep>:<wr>:<alloc>:<wr_alloc>,<mshr>:<N>:<merge>,<mq> | none}
-gpgpu_cache:dl1PrefShared                 none # per-shader L1 data cache config  {<nsets>:<bsize>:<assoc>,<rep>:<wr>:<alloc>:<wr_alloc>,<mshr>:<N>:<merge>,<mq> | none}
-gpgpu_gmem_skip_L1D                    1 # global memory access skip L1D cache (implements -Xptxas -dlcm=cg, default=no skip)
-gpgpu_perfect_mem                      0 # enable perfect memory mode (no cache miss)
-n_regfile_gating_group                    4 # group of lanes that should be read/written together)
-gpgpu_clock_gated_reg_file                    0 # enable clock gated reg file for power calculations
-gpgpu_clock_gated_lanes                    0 # enable clock gated lanes for power calculations
-gpgpu_shader_registers                65536 # Number of registers per shader core. Limits number of concurrent CTAs. (default 8192)
-gpgpu_registers_per_block                 8192 # Maximum number of registers per CTA. (default 8192)
-gpgpu_ignore_resources_limitation                    0 # gpgpu_ignore_resources_limitation (default 0)
-gpgpu_shader_cta                      32 # Maximum number of concurrent CTAs in shader (default 32)
-gpgpu_num_cta_barriers                   16 # Maximum number of named barriers per CTA (default 16)
-gpgpu_n_clusters                      20 # number of processing clusters
-gpgpu_n_cores_per_cluster                    1 # number of simd cores per cluster
-gpgpu_n_cluster_ejection_buffer_size                    8 # number of packets in ejection buffer
-gpgpu_n_ldst_response_buffer_size                    2 # number of response packets in ld/st unit ejection buffer
-gpgpu_shmem_per_block                49152 # Size of shared memory per thread block or CTA (default 48kB)
-gpgpu_shmem_size                   98304 # Size of shared memory per shader core (default 16kB)
-gpgpu_shmem_option                     0 # Option list of shared memory sizes
-gpgpu_unified_l1d_size                    0 # Size of unified data cache(L1D + shared memory) in KB
-gpgpu_adaptive_cache_config                    0 # adaptive_cache_config
-gpgpu_shmem_sizeDefault                16384 # Size of shared memory per shader core (default 16kB)
-gpgpu_shmem_size_PrefL1                16384 # Size of shared memory per shader core (default 16kB)
-gpgpu_shmem_size_PrefShared                16384 # Size of shared memory per shader core (default 16kB)
-gpgpu_shmem_num_banks                   32 # Number of banks in the shared memory in each shader core (default 16)
-gpgpu_shmem_limited_broadcast                    0 # Limit shared memory to do one broadcast per cycle (default on)
-gpgpu_shmem_warp_parts                    1 # Number of portions a warp is divided into for shared memory bank conflict check 
-gpgpu_mem_unit_ports                    1 # The number of memory transactions allowed per core cycle
-gpgpu_shmem_warp_parts                    1 # Number of portions a warp is divided into for shared memory bank conflict check 
-gpgpu_warpdistro_shader                   -1 # Specify which shader core to collect the warp size distribution from
-gpgpu_warp_issue_shader                    0 # Specify which shader core to collect the warp issue distribution from
-gpgpu_local_mem_map                    1 # Mapping from local memory space address to simulated GPU physical address space (default = enabled)
-gpgpu_num_reg_banks                   32 # Number of register banks (default = 8)
-gpgpu_reg_bank_use_warp_id                    0 # Use warp ID in mapping registers to banks (default = off)
-gpgpu_sub_core_model                    0 # Sub Core Volta/Pascal model (default = off)
-gpgpu_enable_specialized_operand_collector                    1 # enable_specialized_operand_collector
-gpgpu_operand_collector_num_units_sp                   20 # number of collector units (default = 4)
-gpgpu_operand_collector_num_units_dp                    0 # number of collector units (default = 0)
-gpgpu_operand_collector_num_units_sfu                    4 # number of collector units (default = 4)
-gpgpu_operand_collector_num_units_int                    0 # number of collector units (default = 0)
-gpgpu_operand_collector_num_units_tensor_core                    4 # number of collector units (default = 4)
-gpgpu_operand_collector_num_units_mem                    8 # number of collector units (default = 2)
-gpgpu_operand_collector_num_units_gen                    0 # number of collector units (default = 0)
-gpgpu_operand_collector_num_in_ports_sp                    4 # number of collector unit in ports (default = 1)
-gpgpu_operand_collector_num_in_ports_dp                    0 # number of collector unit in ports (default = 0)
-gpgpu_operand_collector_num_in_ports_sfu                    1 # number of collector unit in ports (default = 1)
-gpgpu_operand_collector_num_in_ports_int                    0 # number of collector unit in ports (default = 0)
-gpgpu_operand_collector_num_in_ports_tensor_core                    1 # number of collector unit in ports (default = 1)
-gpgpu_operand_collector_num_in_ports_mem                    1 # number of collector unit in ports (default = 1)
-gpgpu_operand_collector_num_in_ports_gen                    0 # number of collector unit in ports (default = 0)
-gpgpu_operand_collector_num_out_ports_sp                    4 # number of collector unit in ports (default = 1)
-gpgpu_operand_collector_num_out_ports_dp                    0 # number of collector unit in ports (default = 0)
-gpgpu_operand_collector_num_out_ports_sfu                    1 # number of collector unit in ports (default = 1)
-gpgpu_operand_collector_num_out_ports_int                    0 # number of collector unit in ports (default = 0)
-gpgpu_operand_collector_num_out_ports_tensor_core                    1 # number of collector unit in ports (default = 1)
-gpgpu_operand_collector_num_out_ports_mem                    1 # number of collector unit in ports (default = 1)
-gpgpu_operand_collector_num_out_ports_gen                    0 # number of collector unit in ports (default = 0)
-gpgpu_coalesce_arch                   13 # Coalescing arch (GT200 = 13, Fermi = 20)
-gpgpu_num_sched_per_core                    2 # Number of warp schedulers per core
-gpgpu_max_insn_issue_per_warp                    2 # Max number of instructions that can be issued per warp in one cycle by scheduler (either 1 or 2)
-gpgpu_dual_issue_diff_exec_units                    1 # should dual issue use two different execution unit resources (Default = 1)
-gpgpu_simt_core_sim_order                    1 # Select the simulation order of cores in a cluster (0=Fix, 1=Round-Robin)
-gpgpu_pipeline_widths 4,0,0,1,1,4,0,0,1,1,6 # Pipeline widths ID_OC_SP,ID_OC_DP,ID_OC_INT,ID_OC_SFU,ID_OC_MEM,OC_EX_SP,OC_EX_DP,OC_EX_INT,OC_EX_SFU,OC_EX_MEM,EX_WB,ID_OC_TENSOR_CORE,OC_EX_TENSOR_CORE
-gpgpu_tensor_core_avail                    0 # Tensor Core Available (default=0)
-gpgpu_num_sp_units                     4 # Number of SP units (default=1)
-gpgpu_num_dp_units                     0 # Number of DP units (default=0)
-gpgpu_num_int_units                    0 # Number of INT units (default=0)
-gpgpu_num_sfu_units                    1 # Number of SF units (default=1)
-gpgpu_num_tensor_core_units                    0 # Number of tensor_core units (default=1)
-gpgpu_num_mem_units                    1 # Number if ldst units (default=1) WARNING: not hooked up to anything
-gpgpu_scheduler                      gto # Scheduler configuration: < lrr | gto | two_level_active > If two_level_active:<num_active_warps>:<inner_prioritization>:<outer_prioritization>For complete list of prioritization values see shader.h enum scheduler_prioritization_typeDefault: gto
-gpgpu_concurrent_kernel_sm                    0 # Support concurrent kernels on a SM (default = disabled)
-gpgpu_perfect_inst_const_cache                    0 # perfect inst and const cache mode, so all inst and const hits in the cache(default = disabled)
-gpgpu_inst_fetch_throughput                    1 # the number of fetched intruction per warp each cycle
-gpgpu_reg_file_port_throughput                    1 # the number ports of the register file
-specialized_unit_1         0,4,4,4,4,BRA # specialized unit config {<enabled>,<num_units>:<latency>:<initiation>,<ID_OC_SPEC>:<OC_EX_SPEC>,<NAME>}
-specialized_unit_2         0,4,4,4,4,BRA # specialized unit config {<enabled>,<num_units>:<latency>:<initiation>,<ID_OC_SPEC>:<OC_EX_SPEC>,<NAME>}
-specialized_unit_3         0,4,4,4,4,BRA # specialized unit config {<enabled>,<num_units>:<latency>:<initiation>,<ID_OC_SPEC>:<OC_EX_SPEC>,<NAME>}
-specialized_unit_4         0,4,4,4,4,BRA # specialized unit config {<enabled>,<num_units>:<latency>:<initiation>,<ID_OC_SPEC>:<OC_EX_SPEC>,<NAME>}
-specialized_unit_5         0,4,4,4,4,BRA # specialized unit config {<enabled>,<num_units>:<latency>:<initiation>,<ID_OC_SPEC>:<OC_EX_SPEC>,<NAME>}
-specialized_unit_6         0,4,4,4,4,BRA # specialized unit config {<enabled>,<num_units>:<latency>:<initiation>,<ID_OC_SPEC>:<OC_EX_SPEC>,<NAME>}
-specialized_unit_7         0,4,4,4,4,BRA # specialized unit config {<enabled>,<num_units>:<latency>:<initiation>,<ID_OC_SPEC>:<OC_EX_SPEC>,<NAME>}
-specialized_unit_8         0,4,4,4,4,BRA # specialized unit config {<enabled>,<num_units>:<latency>:<initiation>,<ID_OC_SPEC>:<OC_EX_SPEC>,<NAME>}
-gpgpu_perf_sim_memcpy                    1 # Fill the L2 cache on memcpy
-gpgpu_simple_dram_model                    0 # simple_dram_model with fixed latency and BW
-gpgpu_dram_scheduler                    1 # 0 = fifo, 1 = FR-FCFS (defaul)
-gpgpu_dram_partition_queues              8:8:8:8 # i2$:$2d:d2$:$2i
-l2_ideal                               0 # Use a ideal L2 cache that always hit
-gpgpu_cache:dl2     N:64:128:16,L:B:m:W:L,A:1024:1024,4:0,32 # unified banked L2 data cache config  {<nsets>:<bsize>:<assoc>,<rep>:<wr>:<alloc>:<wr_alloc>,<mshr>:<N>:<merge>,<mq>}
-gpgpu_cache:dl2_texture_only                    0 # L2 cache used for texture only
-gpgpu_n_mem                            8 # number of memory modules (e.g. memory controllers) in gpu
-gpgpu_n_sub_partition_per_mchannel                    2 # number of memory subpartition in each memory module
-gpgpu_n_mem_per_ctrlr                    1 # number of memory chips per memory controller
-gpgpu_memlatency_stat                   14 # track and display latency statistics 0x2 enables MC, 0x4 enables queue logs
-gpgpu_frfcfs_dram_sched_queue_size                   64 # 0 = unlimited (default); # entries per chip
-gpgpu_dram_return_queue_size                  116 # 0 = unlimited (default); # entries per chip
-gpgpu_dram_buswidth                    4 # default = 4 bytes (8 bytes per cycle at DDR)
-gpgpu_dram_burst_length                    8 # Burst length of each DRAM request (default = 4 data bus cycle)
-dram_data_command_freq_ratio                    4 # Frequency ratio between DRAM data bus and command bus (default = 2 times, i.e. DDR)
-gpgpu_dram_timing_opt nbk=16:CCD=2:RRD=6:RCD=12:RAS=28:RP=12:RC=40: CL=12:WL=4:CDLR=5:WR=12:nbkgrp=1:CCDL=0:RTPL=0 # DRAM timing parameters = {nbk:tCCD:tRRD:tRCD:tRAS:tRP:tRC:CL:WL:tCDLR:tWR:nbkgrp:tCCDL:tRTPL}
-gpgpu_l2_rop_latency                  120 # ROP queue latency (default 85)
-dram_latency                         100 # DRAM latency (default 30)
-dram_dual_bus_interface                    0 # dual_bus_interface (default = 0) 
-dram_bnk_indexing_policy                    0 # dram_bnk_indexing_policy (0 = normal indexing, 1 = Xoring with the higher bits) (Default = 0)
-dram_bnkgrp_indexing_policy                    0 # dram_bnkgrp_indexing_policy (0 = take higher bits, 1 = take lower bits) (Default = 0)
-dram_seperate_write_queue_enable                    0 # Seperate_Write_Queue_Enable
-dram_write_queue_size             32:28:16 # Write_Queue_Size
-dram_elimnate_rw_turnaround                    0 # elimnate_rw_turnaround i.e set tWTR and tRTW = 0
-icnt_flit_size                        32 # icnt_flit_size
-gpgpu_mem_addr_mapping dramid@8;00000000.00000000.00000000.00000000.0000RRRR.RRRRRRRR.RBBBCCCC.BCCSSSSS # mapping memory address to dram model {dramid@<start bit>;<memory address map>}
-gpgpu_mem_addr_test                    0 # run sweep test to check address mapping for aliased address
-gpgpu_mem_address_mask                    1 # 0 = old addressing mask, 1 = new addressing mask, 2 = new add. mask + flipped bank sel and chip sel bits
-gpgpu_memory_partition_indexing                    0 # 0 = no indexing, 1 = bitwise xoring, 2 = IPoly, 3 = custom indexing
-accelwattch_xml_file accelwattch_sass_sim.xml # AccelWattch XML file
-power_simulation_enabled                    0 # Turn on power simulator (1=On, 0=Off)
-power_per_cycle_dump                    0 # Dump detailed power output each cycle
-hw_perf_file_name            hw_perf.csv # Hardware Performance Statistics file
-hw_perf_bench_name                       # Kernel Name in Hardware Performance Statistics file
-power_simulation_mode                    0 # Switch performance counter input for power simulation (0=Sim, 1=HW, 2=HW-Sim Hybrid)
-dvfs_enabled                           0 # Turn on DVFS for power model
-aggregate_power_stats                    0 # Accumulate power across all kernels
-accelwattch_hybrid_perfsim_L1_RH                    0 # Get L1 Read Hits for Accelwattch-Hybrid from Accel-Sim
-accelwattch_hybrid_perfsim_L1_RM                    0 # Get L1 Read Misses for Accelwattch-Hybrid from Accel-Sim
-accelwattch_hybrid_perfsim_L1_WH                    0 # Get L1 Write Hits for Accelwattch-Hybrid from Accel-Sim
-accelwattch_hybrid_perfsim_L1_WM                    0 # Get L1 Write Misses for Accelwattch-Hybrid from Accel-Sim
-accelwattch_hybrid_perfsim_L2_RH                    0 # Get L2 Read Hits for Accelwattch-Hybrid from Accel-Sim
-accelwattch_hybrid_perfsim_L2_RM                    0 # Get L2 Read Misses for Accelwattch-Hybrid from Accel-Sim
-accelwattch_hybrid_perfsim_L2_WH                    0 # Get L2 Write Hits for Accelwattch-Hybrid from Accel-Sim
-accelwattch_hybrid_perfsim_L2_WM                    0 # Get L2 Write Misses for Accelwattch-Hybrid from Accel-Sim
-accelwattch_hybrid_perfsim_CC_ACC                    0 # Get Constant Cache Acesses for Accelwattch-Hybrid from Accel-Sim
-accelwattch_hybrid_perfsim_SHARED_ACC                    0 # Get Shared Memory Acesses for Accelwattch-Hybrid from Accel-Sim
-accelwattch_hybrid_perfsim_DRAM_RD                    0 # Get DRAM Reads for Accelwattch-Hybrid from Accel-Sim
-accelwattch_hybrid_perfsim_DRAM_WR                    0 # Get DRAM Writes for Accelwattch-Hybrid from Accel-Sim
-accelwattch_hybrid_perfsim_NOC                    0 # Get Interconnect Acesses for Accelwattch-Hybrid from Accel-Sim
-accelwattch_hybrid_perfsim_PIPE_DUTY                    0 # Get Pipeline Duty Cycle Acesses for Accelwattch-Hybrid from Accel-Sim
-accelwattch_hybrid_perfsim_NUM_SM_IDLE                    0 # Get Number of Idle SMs for Accelwattch-Hybrid from Accel-Sim
-accelwattch_hybrid_perfsim_CYCLES                    0 # Get Executed Cycles for Accelwattch-Hybrid from Accel-Sim
-accelwattch_hybrid_perfsim_VOLTAGE                    0 # Get Chip Voltage for Accelwattch-Hybrid from Accel-Sim
-power_trace_enabled                    0 # produce a file for the power trace (1=On, 0=Off)
-power_trace_zlevel                     6 # Compression level of the power trace output log (0=no comp, 9=highest)
-steady_power_levels_enabled                    0 # produce a file for the steady power levels (1=On, 0=Off)
-steady_state_definition                  8:4 # allowed deviation:number of samples
-gpgpu_max_cycle                        0 # terminates gpu simulation early (0 = no limit)
-gpgpu_max_insn                         0 # terminates gpu simulation early (0 = no limit)
-gpgpu_max_cta                          0 # terminates gpu simulation early (0 = no limit)
-gpgpu_max_completed_cta                    0 # terminates gpu simulation early (0 = no limit)
-gpgpu_runtime_stat                   500 # display runtime statistics such as dram utilization {<freq>:<flag>}
-liveness_message_freq                    1 # Minimum number of seconds between simulation liveness messages (0 = always print)
-gpgpu_compute_capability_major                    7 # Major compute capability version number
-gpgpu_compute_capability_minor                    0 # Minor compute capability version number
-gpgpu_flush_l1_cache                    0 # Flush L1 cache at the end of each kernel call
-gpgpu_flush_l2_cache                    0 # Flush L2 cache at the end of each kernel call
-gpgpu_deadlock_detect                    1 # Stop the simulation at deadlock (1=on (default), 0=off)
-gpgpu_ptx_instruction_classification                    0 # if enabled will classify ptx instruction types per kernel (Max 255 kernels now)
-gpgpu_ptx_sim_mode                     0 # Select between Performance (default) or Functional simulation (1)
-gpgpu_clock_domains 1607.0:1607.0:1607.0:2500.0 # Clock Domain Frequencies in MhZ {<Core Clock>:<ICNT Clock>:<L2 Clock>:<DRAM Clock>}
-gpgpu_max_concurrent_kernel                   32 # maximum kernels that can run concurrently on GPU, set this value according to max resident grids for your compute capability
-gpgpu_cflog_interval                    0 # Interval between each snapshot in control flow logger
-visualizer_enabled                     0 # Turn on visualizer output (1=On, 0=Off)
-visualizer_outputfile                 NULL # Specifies the output log file for visualizer
-visualizer_zlevel                      6 # Compression level of the visualizer output log (0=no comp, 9=highest)
-gpgpu_stack_size_limit                 1024 # GPU thread stack size
-gpgpu_heap_size_limit              8388608 # GPU malloc heap size 
-gpgpu_runtime_sync_depth_limit                    2 # GPU device runtime synchronize depth
-gpgpu_runtime_pending_launch_count_limit                 2048 # GPU device runtime pending launch count
-trace_enabled                          0 # Turn on traces
-trace_components                    none # comma seperated list of traces to enable. Complete list found in trace_streams.tup. Default none
-trace_sampling_core                    0 # The core which is printed using CORE_DPRINTF. Default 0
-trace_sampling_memory_partition                   -1 # The memory partition which is printed using MEMPART_DPRINTF. Default -1 (i.e. all)
-enable_ptx_file_line_stats                    1 # Turn on PTX source line statistic profiling. (1 = On)
-ptx_line_stats_filename gpgpu_inst_stats.txt # Output file for PTX source line statistics.
-gpgpu_kernel_launch_latency                    0 # Kernel launch latency in cycles. Default: 0
-gpgpu_cdp_enabled                      0 # Turn on CDP
-gpgpu_TB_launch_latency                    0 # thread block launch latency in cycles. Default: 0
-trace               /benchrun/accelsim-sass/sm6_gtx1080/cuda10-transpose/input-repeat1-dimx128-dimy128/results/traces/kernelslist.g # traces kernel filetraces kernel file directory
-trace_opcode_latency_initiation_int                  4,1 # Opcode latencies and initiation for integers in trace driven mode <latency,initiation>
-trace_opcode_latency_initiation_sp                  4,1 # Opcode latencies and initiation for sp in trace driven mode <latency,initiation>
-trace_opcode_latency_initiation_dp                  4,1 # Opcode latencies and initiation for dp in trace driven mode <latency,initiation>
-trace_opcode_latency_initiation_sfu                  4,1 # Opcode latencies and initiation for sfu in trace driven mode <latency,initiation>
-trace_opcode_latency_initiation_tensor                  4,1 # Opcode latencies and initiation for tensor in trace driven mode <latency,initiation>
-trace_opcode_latency_initiation_spec_op_1                  4,4 # specialized unit config <latency,initiation>
-trace_opcode_latency_initiation_spec_op_2                  4,4 # specialized unit config <latency,initiation>
-trace_opcode_latency_initiation_spec_op_3                  4,4 # specialized unit config <latency,initiation>
-trace_opcode_latency_initiation_spec_op_4                  4,4 # specialized unit config <latency,initiation>
-trace_opcode_latency_initiation_spec_op_5                  4,4 # specialized unit config <latency,initiation>
-trace_opcode_latency_initiation_spec_op_6                  4,4 # specialized unit config <latency,initiation>
-trace_opcode_latency_initiation_spec_op_7                  4,4 # specialized unit config <latency,initiation>
-trace_opcode_latency_initiation_spec_op_8                  4,4 # specialized unit config <latency,initiation>
DRAM Timing Options:
nbk                                    16 # number of banks
CCD                                     2 # column to column delay
RRD                                     6 # minimal delay between activation of rows in different banks
RCD                                    12 # row to column delay
RAS                                    28 # time needed to activate row
RP                                     12 # time needed to precharge (deactivate) row
RC                                     40 # row cycle time
CDLR                                    5 # switching from write to read (changes tWTR)
WR                                     12 # last data-in to row precharge
CL                                     12 # CAS latency
WL                                      4 # Write latency
nbkgrp                                  1 # number of bank groups
CCDL                                    0 # column to column delay between accesses to different bank groups
RTPL                                    0 # read to precharge delay between accesses to different bank groups
Total number of memory sub partition = 16
addr_dec_mask[CHIP]  = 0000000000000700 	high:11 low:8
addr_dec_mask[BK]    = 0000000000038080 	high:18 low:7
addr_dec_mask[ROW]   = 000000007ffc0000 	high:31 low:18
addr_dec_mask[COL]   = 000000000000787f 	high:15 low:0
addr_dec_mask[BURST] = 000000000000001f 	high:5 low:0
sub_partition_id_mask = 0000000000000080
GPGPU-Sim uArch: clock freqs: 1607000000.000000:1607000000.000000:1607000000.000000:2500000000.000000
GPGPU-Sim uArch: clock periods: 0.00000000062227753578:0.00000000062227753578:0.00000000062227753578:0.00000000040000000000
*** Initializing Memory Statistics ***
GPGPU-Sim uArch: interconnect node map (shaderID+MemID to icntID)
GPGPU-Sim uArch: Memory nodes ID start from index: 20
GPGPU-Sim uArch:    0   1   2   3   4   5   6
GPGPU-Sim uArch:    7   8   9  10  11  12  13
GPGPU-Sim uArch:   14  15  16  17  18  19  20
GPGPU-Sim uArch:   21  22  23  24  25  26  27
GPGPU-Sim uArch:   28  29  30  31  32  33  34
GPGPU-Sim uArch:   35  36  37  38  39  40  41
GPGPU-Sim uArch:   42  43  44  45  46  47  48
GPGPU-Sim uArch:   49
GPGPU-Sim uArch: interconnect node reverse map (icntID to shaderID+MemID)
GPGPU-Sim uArch: Memory nodes start from ID: 20
GPGPU-Sim uArch:    0   1   2   3   4   5   6
GPGPU-Sim uArch:    7   8   9  10  11  12  13
GPGPU-Sim uArch:   14  15  16  17  18  19  20
GPGPU-Sim uArch:   21  22  23  24  25  26  27
GPGPU-Sim uArch:   28  29  30  31  32  33  34
GPGPU-Sim uArch:   35  36  37  38  39  40  41
GPGPU-Sim uArch:   42  43  44  45  46  47  48
GPGPU-Sim uArch:   49
GPGPU-Sim uArch: performance model initialization complete.
launching memcpy command : MemcpyHtoD,0x00007f1e6d500000,65536
Processing kernel /benchrun/accelsim-sass/sm6_gtx1080/cuda10-transpose/input-repeat1-dimx128-dimy128/results/traces/kernel-1.traceg
-kernel name = _Z4copyPfS_ii
-kernel id = 1
-grid dim = (8,8,1)
-block dim = (16,16,1)
-shmem = 0
-nregs = 6
-binary version = 61
-cuda stream id = 0
-shmem base_addr = 0x00007f1e9a000000
-local mem base_addr = 0x00007f1e98000000
-nvbit version = 1.5.5
-accelsim tracer version = 3
Header info loaded for kernel command : /benchrun/accelsim-sass/sm6_gtx1080/cuda10-transpose/input-repeat1-dimx128-dimy128/results/traces/kernel-1.traceg
launching kernel name: _Z4copyPfS_ii uid: 1
GPGPU-Sim uArch: Shader 0 bind to kernel 1 '_Z4copyPfS_ii'
GPGPU-Sim uArch: CTA/core = 8, limited by: threads
thread block = 0,0,0
GPGPU-Sim uArch: Shader 1 bind to kernel 1 '_Z4copyPfS_ii'
thread block = 1,0,0
GPGPU-Sim uArch: Shader 2 bind to kernel 1 '_Z4copyPfS_ii'
thread block = 2,0,0
GPGPU-Sim uArch: Shader 3 bind to kernel 1 '_Z4copyPfS_ii'
thread block = 3,0,0
GPGPU-Sim uArch: Shader 4 bind to kernel 1 '_Z4copyPfS_ii'
thread block = 4,0,0
GPGPU-Sim uArch: Shader 5 bind to kernel 1 '_Z4copyPfS_ii'
thread block = 5,0,0
GPGPU-Sim uArch: Shader 6 bind to kernel 1 '_Z4copyPfS_ii'
thread block = 6,0,0
GPGPU-Sim uArch: Shader 7 bind to kernel 1 '_Z4copyPfS_ii'
thread block = 7,0,0
GPGPU-Sim uArch: Shader 8 bind to kernel 1 '_Z4copyPfS_ii'
thread block = 0,1,0
GPGPU-Sim uArch: Shader 9 bind to kernel 1 '_Z4copyPfS_ii'
thread block = 1,1,0
GPGPU-Sim uArch: Shader 10 bind to kernel 1 '_Z4copyPfS_ii'
thread block = 2,1,0
GPGPU-Sim uArch: Shader 11 bind to kernel 1 '_Z4copyPfS_ii'
thread block = 3,1,0
GPGPU-Sim uArch: Shader 12 bind to kernel 1 '_Z4copyPfS_ii'
thread block = 4,1,0
GPGPU-Sim uArch: Shader 13 bind to kernel 1 '_Z4copyPfS_ii'
thread block = 5,1,0
GPGPU-Sim uArch: Shader 14 bind to kernel 1 '_Z4copyPfS_ii'
thread block = 6,1,0
GPGPU-Sim uArch: Shader 15 bind to kernel 1 '_Z4copyPfS_ii'
thread block = 7,1,0
GPGPU-Sim uArch: Shader 16 bind to kernel 1 '_Z4copyPfS_ii'
thread block = 0,2,0
GPGPU-Sim uArch: Shader 17 bind to kernel 1 '_Z4copyPfS_ii'
thread block = 1,2,0
GPGPU-Sim uArch: Shader 18 bind to kernel 1 '_Z4copyPfS_ii'
thread block = 2,2,0
GPGPU-Sim uArch: Shader 19 bind to kernel 1 '_Z4copyPfS_ii'
thread block = 3,2,0
thread block = 4,2,0
thread block = 5,2,0
thread block = 6,2,0
thread block = 7,2,0
thread block = 0,3,0
thread block = 1,3,0
thread block = 2,3,0
thread block = 3,3,0
thread block = 4,3,0
thread block = 5,3,0
thread block = 6,3,0
thread block = 7,3,0
thread block = 0,4,0
thread block = 1,4,0
thread block = 2,4,0
thread block = 3,4,0
thread block = 4,4,0
thread block = 5,4,0
thread block = 6,4,0
thread block = 7,4,0
thread block = 0,5,0
thread block = 1,5,0
thread block = 2,5,0
thread block = 3,5,0
thread block = 4,5,0
thread block = 5,5,0
thread block = 6,5,0
thread block = 7,5,0
thread block = 0,6,0
thread block = 1,6,0
thread block = 2,6,0
thread block = 3,6,0
thread block = 4,6,0
thread block = 5,6,0
thread block = 6,6,0
thread block = 7,6,0
thread block = 0,7,0
thread block = 1,7,0
thread block = 2,7,0
thread block = 3,7,0
thread block = 4,7,0
thread block = 5,7,0
thread block = 6,7,0
thread block = 7,7,0
Destroy streams for kernel 1: size 0
kernel_name = _Z4copyPfS_ii 
kernel_launch_uid = 1 
gpu_sim_cycle = 2454
gpu_sim_insn = 311296
gpu_ipc =     126.8525
gpu_tot_sim_cycle = 2454
gpu_tot_sim_insn = 311296
gpu_tot_ipc =     126.8525
gpu_tot_issued_cta = 64
gpu_occupancy = 34.3595% 
gpu_tot_occupancy = 34.3595% 
max_total_param_size = 0
gpu_stall_dramfull = 2457
gpu_stall_icnt2sh    = 4811
partiton_level_parallism =       0.8509
partiton_level_parallism_total  =       0.8509
partiton_level_parallism_util =       4.2182
partiton_level_parallism_util_total  =       4.2182
L2_BW  =      43.7544 GB/Sec
L2_BW_total  =      43.7544 GB/Sec
gpu_total_sim_rate=311296

========= Core cache stats =========
L1I_cache:
	L1I_total_cache_accesses = 5120
	L1I_total_cache_misses = 1024
	L1I_total_cache_miss_rate = 0.2000
	L1I_total_cache_pending_hits = 0
	L1I_total_cache_reservation_fails = 0
L1D_cache:
	L1D_cache_core[0]: Access = 0, Miss = 0, Miss_rate = -nan, Pending_hits = 0, Reservation_fails = 0
	L1D_cache_core[1]: Access = 0, Miss = 0, Miss_rate = -nan, Pending_hits = 0, Reservation_fails = 0
	L1D_cache_core[2]: Access = 0, Miss = 0, Miss_rate = -nan, Pending_hits = 0, Reservation_fails = 0
	L1D_cache_core[3]: Access = 0, Miss = 0, Miss_rate = -nan, Pending_hits = 0, Reservation_fails = 0
	L1D_cache_core[4]: Access = 0, Miss = 0, Miss_rate = -nan, Pending_hits = 0, Reservation_fails = 0
	L1D_cache_core[5]: Access = 0, Miss = 0, Miss_rate = -nan, Pending_hits = 0, Reservation_fails = 0
	L1D_cache_core[6]: Access = 0, Miss = 0, Miss_rate = -nan, Pending_hits = 0, Reservation_fails = 0
	L1D_cache_core[7]: Access = 0, Miss = 0, Miss_rate = -nan, Pending_hits = 0, Reservation_fails = 0
	L1D_cache_core[8]: Access = 0, Miss = 0, Miss_rate = -nan, Pending_hits = 0, Reservation_fails = 0
	L1D_cache_core[9]: Access = 0, Miss = 0, Miss_rate = -nan, Pending_hits = 0, Reservation_fails = 0
	L1D_cache_core[10]: Access = 0, Miss = 0, Miss_rate = -nan, Pending_hits = 0, Reservation_fails = 0
	L1D_cache_core[11]: Access = 0, Miss = 0, Miss_rate = -nan, Pending_hits = 0, Reservation_fails = 0
	L1D_cache_core[12]: Access = 0, Miss = 0, Miss_rate = -nan, Pending_hits = 0, Reservation_fails = 0
	L1D_cache_core[13]: Access = 0, Miss = 0, Miss_rate = -nan, Pending_hits = 0, Reservation_fails = 0
	L1D_cache_core[14]: Access = 0, Miss = 0, Miss_rate = -nan, Pending_hits = 0, Reservation_fails = 0
	L1D_cache_core[15]: Access = 0, Miss = 0, Miss_rate = -nan, Pending_hits = 0, Reservation_fails = 0
	L1D_cache_core[16]: Access = 0, Miss = 0, Miss_rate = -nan, Pending_hits = 0, Reservation_fails = 0
	L1D_cache_core[17]: Access = 0, Miss = 0, Miss_rate = -nan, Pending_hits = 0, Reservation_fails = 0
	L1D_cache_core[18]: Access = 0, Miss = 0, Miss_rate = -nan, Pending_hits = 0, Reservation_fails = 0
	L1D_cache_core[19]: Access = 0, Miss = 0, Miss_rate = -nan, Pending_hits = 0, Reservation_fails = 0
	L1D_total_cache_accesses = 0
	L1D_total_cache_misses = 0
	L1D_total_cache_pending_hits = 0
	L1D_total_cache_reservation_fails = 0
	L1D_cache_data_port_util = 0.000
	L1D_cache_fill_port_util = 0.000
L1C_cache:
	L1C_total_cache_accesses = 0
	L1C_total_cache_misses = 0
	L1C_total_cache_pending_hits = 0
	L1C_total_cache_reservation_fails = 0
L1T_cache:
	L1T_total_cache_accesses = 0
	L1T_total_cache_misses = 0
	L1T_total_cache_pending_hits = 0
	L1T_total_cache_reservation_fails = 0

Total_core_cache_stats:
	Total_core_cache_stats_breakdown[GLOBAL_ACC_R][HIT] = 0
	Total_core_cache_stats_breakdown[GLOBAL_ACC_R][HIT_RESERVED] = 0
	Total_core_cache_stats_breakdown[GLOBAL_ACC_R][MISS] = 0
	Total_core_cache_stats_breakdown[GLOBAL_ACC_R][RESERVATION_FAIL] = 0
	Total_core_cache_stats_breakdown[GLOBAL_ACC_R][SECTOR_MISS] = 0
	Total_core_cache_stats_breakdown[GLOBAL_ACC_R][MSHR_HIT] = 0
	Total_core_cache_stats_breakdown[LOCAL_ACC_R][HIT] = 0
	Total_core_cache_stats_breakdown[LOCAL_ACC_R][HIT_RESERVED] = 0
	Total_core_cache_stats_breakdown[LOCAL_ACC_R][MISS] = 0
	Total_core_cache_stats_breakdown[LOCAL_ACC_R][RESERVATION_FAIL] = 0
	Total_core_cache_stats_breakdown[LOCAL_ACC_R][SECTOR_MISS] = 0
	Total_core_cache_stats_breakdown[LOCAL_ACC_R][MSHR_HIT] = 0
	Total_core_cache_stats_breakdown[CONST_ACC_R][HIT] = 0
	Total_core_cache_stats_breakdown[CONST_ACC_R][HIT_RESERVED] = 0
	Total_core_cache_stats_breakdown[CONST_ACC_R][MISS] = 0
	Total_core_cache_stats_breakdown[CONST_ACC_R][RESERVATION_FAIL] = 0
	Total_core_cache_stats_breakdown[CONST_ACC_R][SECTOR_MISS] = 0
	Total_core_cache_stats_breakdown[CONST_ACC_R][MSHR_HIT] = 0
	Total_core_cache_stats_breakdown[TEXTURE_ACC_R][HIT] = 0
	Total_core_cache_stats_breakdown[TEXTURE_ACC_R][HIT_RESERVED] = 0
	Total_core_cache_stats_breakdown[TEXTURE_ACC_R][MISS] = 0
	Total_core_cache_stats_breakdown[TEXTURE_ACC_R][RESERVATION_FAIL] = 0
	Total_core_cache_stats_breakdown[TEXTURE_ACC_R][SECTOR_MISS] = 0
	Total_core_cache_stats_breakdown[TEXTURE_ACC_R][MSHR_HIT] = 0
	Total_core_cache_stats_breakdown[GLOBAL_ACC_W][HIT] = 0
	Total_core_cache_stats_breakdown[GLOBAL_ACC_W][HIT_RESERVED] = 0
	Total_core_cache_stats_breakdown[GLOBAL_ACC_W][MISS] = 0
	Total_core_cache_stats_breakdown[GLOBAL_ACC_W][RESERVATION_FAIL] = 0
	Total_core_cache_stats_breakdown[GLOBAL_ACC_W][SECTOR_MISS] = 0
	Total_core_cache_stats_breakdown[GLOBAL_ACC_W][MSHR_HIT] = 0
	Total_core_cache_stats_breakdown[LOCAL_ACC_W][HIT] = 0
	Total_core_cache_stats_breakdown[LOCAL_ACC_W][HIT_RESERVED] = 0
	Total_core_cache_stats_breakdown[LOCAL_ACC_W][MISS] = 0
	Total_core_cache_stats_breakdown[LOCAL_ACC_W][RESERVATION_FAIL] = 0
	Total_core_cache_stats_breakdown[LOCAL_ACC_W][SECTOR_MISS] = 0
	Total_core_cache_stats_breakdown[LOCAL_ACC_W][MSHR_HIT] = 0
	Total_core_cache_stats_breakdown[L1_WRBK_ACC][HIT] = 0
	Total_core_cache_stats_breakdown[L1_WRBK_ACC][HIT_RESERVED] = 0
	Total_core_cache_stats_breakdown[L1_WRBK_ACC][MISS] = 0
	Total_core_cache_stats_breakdown[L1_WRBK_ACC][RESERVATION_FAIL] = 0
	Total_core_cache_stats_breakdown[L1_WRBK_ACC][SECTOR_MISS] = 0
	Total_core_cache_stats_breakdown[L1_WRBK_ACC][MSHR_HIT] = 0
	Total_core_cache_stats_breakdown[L2_WRBK_ACC][HIT] = 0
	Total_core_cache_stats_breakdown[L2_WRBK_ACC][HIT_RESERVED] = 0
	Total_core_cache_stats_breakdown[L2_WRBK_ACC][MISS] = 0
	Total_core_cache_stats_breakdown[L2_WRBK_ACC][RESERVATION_FAIL] = 0
	Total_core_cache_stats_breakdown[L2_WRBK_ACC][SECTOR_MISS] = 0
	Total_core_cache_stats_breakdown[L2_WRBK_ACC][MSHR_HIT] = 0
	Total_core_cache_stats_breakdown[INST_ACC_R][HIT] = 4096
	Total_core_cache_stats_breakdown[INST_ACC_R][HIT_RESERVED] = 0
	Total_core_cache_stats_breakdown[INST_ACC_R][MISS] = 1024
	Total_core_cache_stats_breakdown[INST_ACC_R][RESERVATION_FAIL] = 0
	Total_core_cache_stats_breakdown[INST_ACC_R][SECTOR_MISS] = 0
	Total_core_cache_stats_breakdown[INST_ACC_R][MSHR_HIT] = 984
	Total_core_cache_stats_breakdown[L1_WR_ALLOC_R][HIT] = 0
	Total_core_cache_stats_breakdown[L1_WR_ALLOC_R][HIT_RESERVED] = 0
	Total_core_cache_stats_breakdown[L1_WR_ALLOC_R][MISS] = 0
	Total_core_cache_stats_breakdown[L1_WR_ALLOC_R][RESERVATION_FAIL] = 0
	Total_core_cache_stats_breakdown[L1_WR_ALLOC_R][SECTOR_MISS] = 0
	Total_core_cache_stats_breakdown[L1_WR_ALLOC_R][MSHR_HIT] = 0
	Total_core_cache_stats_breakdown[L2_WR_ALLOC_R][HIT] = 0
	Total_core_cache_stats_breakdown[L2_WR_ALLOC_R][HIT_RESERVED] = 0
	Total_core_cache_stats_breakdown[L2_WR_ALLOC_R][MISS] = 0
	Total_core_cache_stats_breakdown[L2_WR_ALLOC_R][RESERVATION_FAIL] = 0
	Total_core_cache_stats_breakdown[L2_WR_ALLOC_R][SECTOR_MISS] = 0
	Total_core_cache_stats_breakdown[L2_WR_ALLOC_R][MSHR_HIT] = 0
	Total_core_cache_stats_breakdown[INST_ACC_R][TOTAL_ACCESS] = 5120

Total_core_cache_fail_stats:
ctas_completed 64, Shader 0 warp_id issue ditsribution:
warp_id:
0, 1, 2, 3, 4, 5, 6, 7, 8, 9, 10, 11, 12, 13, 14, 15, 16, 17, 18, 19, 20, 21, 22, 23, 24, 25, 26, 27, 28, 29, 30, 31, 
distro:
20, 20, 20, 20, 20, 20, 20, 20, 20, 20, 20, 20, 20, 20, 20, 20, 20, 20, 20, 20, 20, 20, 20, 20, 20, 20, 20, 20, 20, 20, 20, 20, 
gpgpu_n_tot_thrd_icount = 311296
gpgpu_n_tot_w_icount = 9728
gpgpu_n_stall_shd_mem = 5712
gpgpu_n_mem_read_local = 0
gpgpu_n_mem_write_local = 0
gpgpu_n_mem_read_global = 1024
gpgpu_n_mem_write_global = 1024
gpgpu_n_mem_texture = 0
gpgpu_n_mem_const = 0
gpgpu_n_load_insn  = 16384
gpgpu_n_store_insn = 16384
gpgpu_n_shmem_insn = 0
gpgpu_n_sstarr_insn = 0
gpgpu_n_tex_insn = 0
gpgpu_n_const_mem_insn = 0
gpgpu_n_param_mem_insn = 0
gpgpu_n_shmem_bkconflict = 0
gpgpu_n_cache_bkconflict = 0
gpgpu_n_intrawarp_mshr_merge = 0
gpgpu_n_cmem_portconflict = 0
gpgpu_stall_shd_mem[c_mem][resource_stall] = 0
gpgpu_stall_shd_mem[s_mem][bk_conf] = 0
gpgpu_stall_shd_mem[gl_mem][resource_stall] = 0
gpgpu_stall_shd_mem[gl_mem][coal_stall] = 1024
gpgpu_stall_shd_mem[gl_mem][data_port_stall] = 0
gpu_reg_bank_conflict_stalls = 0
Warp Occupancy Distribution:
Stall:1414	W0_Idle:55594	W0_Scoreboard:21926	W1:0	W2:0	W3:0	W4:0	W5:0	W6:0	W7:0	W8:0	W9:0	W10:0	W11:0	W12:0	W13:0	W14:0	W15:0	W16:0	W17:0	W18:0	W19:0	W20:0	W21:0	W22:0	W23:0	W24:0	W25:0	W26:0	W27:0	W28:0	W29:0	W30:0	W31:0	W32:9728
single_issue_nums: WS0:4352	WS1:4352	
dual_issue_nums: WS0:256	WS1:256	
traffic_breakdown_coretomem[GLOBAL_ACC_R] = 8192 {8:1024,}
traffic_breakdown_coretomem[GLOBAL_ACC_W] = 73728 {72:1024,}
traffic_breakdown_coretomem[INST_ACC_R] = 320 {8:40,}
traffic_breakdown_memtocore[GLOBAL_ACC_R] = 73728 {72:1024,}
traffic_breakdown_memtocore[GLOBAL_ACC_W] = 8192 {8:1024,}
traffic_breakdown_memtocore[INST_ACC_R] = 5440 {136:40,}
maxmflatency = 951 
max_icnt2mem_latency = 257 
maxmrqlatency = 624 
max_icnt2sh_latency = 80 
averagemflatency = 450 
avg_icnt2mem_latency = 53 
avg_mrq_latency = 164 
avg_icnt2sh_latency = 27 
mrq_lat_table:133 	21 	36 	38 	77 	194 	540 	451 	548 	10 	0 	0 	0 	0 	0 	0 	0 	0 	0 	0 	0 	0 	0 	0 	0 	0 	0 	0 	0 	0 	0 	0 	
dq_lat_table:0 	0 	0 	0 	0 	0 	0 	0 	0 	0 	0 	0 	0 	0 	0 	0 	0 	0 	0 	0 	0 	0 	0 	0 	0 	0 	0 	0 	0 	0 	0 	0 	
mf_lat_table:0 	0 	0 	0 	0 	0 	0 	1 	1318 	729 	0 	0 	0 	0 	0 	0 	0 	0 	0 	0 	0 	0 	0 	0 	0 	0 	0 	0 	0 	0 	0 	0 	
icnt2mem_lat_table:0 	0 	0 	465 	459 	769 	265 	129 	1 	0 	0 	0 	0 	0 	0 	0 	0 	0 	0 	0 	0 	0 	0 	0 	
icnt2sh_lat_table:0 	0 	0 	980 	458 	569 	41 	0 	0 	0 	0 	0 	0 	0 	0 	0 	0 	0 	0 	0 	0 	0 	0 	0 	
mf_lat_pw_table:0 	0 	0 	0 	0 	0 	0 	0 	2 	1 	0 	0 	0 	0 	0 	0 	0 	0 	0 	0 	0 	0 	0 	0 	0 	0 	0 	0 	0 	0 	0 	0 	
maximum concurrent accesses to same row:
dram[0]:         1         1         0         0         0         0         0         0         0         0         0         0         0         0         0         0 
dram[1]:         0         0         0         0         0         0         0         0         0         0         0         0         0         0         0         0 
dram[2]:         0         0         0         0         0         0         0         0         0         0         0         0         0         0         0         0 
dram[3]:         0         0         0         0         0         0         0         0         0         0         0         0         0         0         0         0 
dram[4]:         0         0         0         0         0         0         0         0         0         0         0         0         0         0         0         0 
dram[5]:         0         0         0         0         0         0         0         0         0         0         0         0         0         0         0         0 
dram[6]:         0         0         0         0         0         0         0         0         0         0         0         0         0         0         0         0 
dram[7]:         0         0         0         0         0         0         0         0         0         0         0         0         0         0         0         0 
maximum service time to same row:
dram[0]:       746       656      1059      1071      1284      1613      1622      1796         0         0         0         0         0         0         0         0 
dram[1]:       956       967      1039      1048      1251      1266      1496      1539         0         0         0         0         0         0         0         0 
dram[2]:       978       990      1057      1069      1271      1347      1618      1759         0         0         0         0         0         0         0         0 
dram[3]:       954       965      1037      1046      1235      1275      1451      1586         0         0         0         0         0         0         0         0 
dram[4]:       985      1008      1075      1087      1264      1316      1606      1721         0         0         0         0         0         0         0         0 
dram[5]:       960       972      1082      1091      1264      1255      1606      1608         0         0         0         0         0         0         0         0 
dram[6]:       983      1005      1073      1086      1260      1311      1602      1647         0         0         0         0         0         0         0         0 
dram[7]:       958       969      1080      1089      1242      1251      1555      1635         0         0         0         0         0         0         0         0 
average row accesses per activate:
dram[0]:  8.500000  8.500000 16.000000 16.000000 47.000000 48.000000 48.000000 48.000000      -nan      -nan      -nan      -nan      -nan      -nan      -nan      -nan 
dram[1]: 16.000000 16.000000 16.000000 16.000000 48.000000 48.000000 48.000000 48.000000      -nan      -nan      -nan      -nan      -nan      -nan      -nan      -nan 
dram[2]: 16.000000 16.000000 16.000000 16.000000 48.000000 47.000000 48.000000 48.000000      -nan      -nan      -nan      -nan      -nan      -nan      -nan      -nan 
dram[3]: 16.000000 16.000000 16.000000 16.000000 48.000000 48.000000 48.000000 48.000000      -nan      -nan      -nan      -nan      -nan      -nan      -nan      -nan 
dram[4]: 16.000000 16.000000 16.000000 16.000000 48.000000 48.000000 48.000000 48.000000      -nan      -nan      -nan      -nan      -nan      -nan      -nan      -nan 
dram[5]: 16.000000 16.000000 16.000000 16.000000 48.000000 48.000000 48.000000 48.000000      -nan      -nan      -nan      -nan      -nan      -nan      -nan      -nan 
dram[6]: 16.000000 16.000000 16.000000 16.000000 48.000000 48.000000 48.000000 48.000000      -nan      -nan      -nan      -nan      -nan      -nan      -nan      -nan 
dram[7]: 16.000000 16.000000 16.000000 16.000000 48.000000 48.000000 48.000000 48.000000      -nan      -nan      -nan      -nan      -nan      -nan      -nan      -nan 
average row locality = 2048/66 = 31.030304
number of total memory accesses made:
dram[0]:         0         0         0         0         0         0         0         0         0         0         0         0         0         0         0         0 
dram[1]:         0         0         0         0         0         0         0         0         0         0         0         0         0         0         0         0 
dram[2]:         0         0         0         0         0         0         0         0         0         0         0         0         0         0         0         0 
dram[3]:         0         0         0         0         0         0         0         0         0         0         0         0         0         0         0         0 
dram[4]:         0         0         0         0         0         0         0         0         0         0         0         0         0         0         0         0 
dram[5]:         0         0         0         0         0         0         0         0         0         0         0         0         0         0         0         0 
dram[6]:         0         0         0         0         0         0         0         0         0         0         0         0         0         0         0         0 
dram[7]:         0         0         0         0         0         0         0         0         0         0         0         0         0         0         0         0 
total accesses: 0
min_bank_accesses = 0!
min_chip_accesses = 0!
number of total read accesses:
dram[0]:        68        68        64        64        64        64        64        64         0         0         0         0         0         0         0         0 
dram[1]:        64        64        64        64        64        64        64        64         0         0         0         0         0         0         0         0 
dram[2]:        64        64        64        64        64        64        64        64         0         0         0         0         0         0         0         0 
dram[3]:        64        64        64        64        64        64        64        64         0         0         0         0         0         0         0         0 
dram[4]:        64        64        64        64        64        64        64        64         0         0         0         0         0         0         0         0 
dram[5]:        64        64        64        64        64        64        64        64         0         0         0         0         0         0         0         0 
dram[6]:        64        64        64        64        64        64        64        64         0         0         0         0         0         0         0         0 
dram[7]:        64        64        64        64        64        64        64        64         0         0         0         0         0         0         0         0 
total dram reads = 4104
min_bank_accesses = 0!
chip skew: 520/512 = 1.02
number of total write accesses:
dram[0]:         0         0         0         0        62        64        64        64         0         0         0         0         0         0         0         0 
dram[1]:         0         0         0         0        64        64        64        64         0         0         0         0         0         0         0         0 
dram[2]:         0         0         0         0        64        62        64        64         0         0         0         0         0         0         0         0 
dram[3]:         0         0         0         0        64        64        64        64         0         0         0         0         0         0         0         0 
dram[4]:         0         0         0         0        64        64        64        64         0         0         0         0         0         0         0         0 
dram[5]:         0         0         0         0        64        64        64        64         0         0         0         0         0         0         0         0 
dram[6]:         0         0         0         0        64        64        64        64         0         0         0         0         0         0         0         0 
dram[7]:         0         0         0         0        64        64        64        64         0         0         0         0         0         0         0         0 
total dram writes = 2044
min_bank_accesses = 0!
chip skew: 256/254 = 1.01
average mf latency per bank:
dram[0]:        171       201       249       305       128       190       137       151    none      none      none      none      none      none      none      none  
dram[1]:        170       172       230       240       160       119       127       138    none      none      none      none      none      none      none      none  
dram[2]:        170       205       231       300        96       168       138       137    none      none      none      none      none      none      none      none  
dram[3]:        153       173       203       254       129       135       118       148    none      none      none      none      none      none      none      none  
dram[4]:        164       191       202       259       110       143       143       152    none      none      none      none      none      none      none      none  
dram[5]:        174       171       228       253       141       127       147       129    none      none      none      none      none      none      none      none  
dram[6]:        170       184       229       240       142       118       153       144    none      none      none      none      none      none      none      none  
dram[7]:        159       175       220       263       122       142       127       141    none      none      none      none      none      none      none      none  
maximum mf latency per bank:
dram[0]:        427       523       557       672       670       951       798       800         0         0         0         0         0         0         0         0
dram[1]:        407       437       520       534       930       712       705       783         0         0         0         0         0         0         0         0
dram[2]:        392       508       526       662       490       847       769       743         0         0         0         0         0         0         0         0
dram[3]:        348       446       450       592       819       777       664       806         0         0         0         0         0         0         0         0
dram[4]:        383       467       444       558       614       791       760       759         0         0         0         0         0         0         0         0
dram[5]:        412       440       500       558       847       703       781       689         0         0         0         0         0         0         0         0
dram[6]:        412       454       510       502       840       717       803       757         0         0         0         0         0         0         0         0
dram[7]:        382       456       496       580       758       783       719       691         0         0         0         0         0         0         0         0
Memory Partition 0: 
Cache L2_bank_000:
MSHR contents

Cache L2_bank_001:
MSHR contents

In Dram Latency Queue (total = 0): 
DRAM[0]: 16 bks, busW=4 BL=8 CL=12, tRRD=6 tCCD=2, tRCD=12 tRAS=28 tRP=12 tRC=40
n_cmd=3817 n_nop=3031 n_act=10 n_pre=2 n_ref_event=0 n_req=257 n_rd=264 n_rd_L2_A=256 n_write=254 n_wr_bk=0 bw_util=0.4056
n_activity=2187 dram_eff=0.7078
bk0: 68a 3668i bk1: 68a 3539i bk2: 64a 3533i bk3: 64a 3442i bk4: 64a 2938i bk5: 64a 2721i bk6: 64a 2731i bk7: 64a 2858i bk8: 0a 3814i bk9: 0a 3815i bk10: 0a 3815i bk11: 0a 3815i bk12: 0a 3816i bk13: 0a 3817i bk14: 0a 3819i bk15: 0a 3820i 

------------------------------------------------------------------------

Row_Buffer_Locality = 0.961089
Row_Buffer_Locality_read = 0.953846
Row_Buffer_Locality_write = 0.968504
Bank_Level_Parallism = 2.519774
Bank_Level_Parallism_Col = 2.519678
Bank_Level_Parallism_Ready = 1.980620
write_to_read_ratio_blp_rw_average = 0.395764
GrpLevelPara = 1.000000 

BW Util details:
bwutil = 0.405554 
total_CMD = 3817 
util_bw = 1548 
Wasted_Col = 568 
Wasted_Row = 12 
Idle = 1689 

BW Util Bottlenecks: 
RCDc_limit = 38 
RCDWRc_limit = 7 
WTRc_limit = 576 
RTWc_limit = 650 
CCDLc_limit = 0 
rwq = 0 
CCDLc_limit_alone = 0 
WTRc_limit_alone = 576 
RTWc_limit_alone = 650 

Commands details: 
total_CMD = 3817 
n_nop = 3031 
Read = 264 
Write = 254 
L2_Alloc = 256 
L2_WB = 0 
n_act = 10 
n_pre = 2 
n_ref = 0 
n_req = 257 
total_req = 774 

Dual Bus Interface Util: 
issued_total_row = 12 
issued_total_col = 774 
Row_Bus_Util =  0.003144 
CoL_Bus_Util = 0.202777 
Either_Row_CoL_Bus_Util = 0.205921 
Issued_on_Two_Bus_Simul_Util = 0.000000 
issued_two_Eff = 0.000000 
queue_avg = 18.732512 


dram_util_bins: 0 0 0 0 0 0 0 0 0 0
dram_eff_bins: 0 0 0 0 0 0 0 0 0 0
mrqq: max=64 avg=18.7325
Memory Partition 1: 
Cache L2_bank_002:
MSHR contents

Cache L2_bank_003:
MSHR contents

In Dram Latency Queue (total = 0): 
DRAM[1]: 16 bks, busW=4 BL=8 CL=12, tRRD=6 tCCD=2, tRCD=12 tRAS=28 tRP=12 tRC=40
n_cmd=3817 n_nop=3041 n_act=8 n_pre=0 n_ref_event=0 n_req=256 n_rd=256 n_rd_L2_A=256 n_write=256 n_wr_bk=0 bw_util=0.4024
n_activity=2033 dram_eff=0.7555
bk0: 64a 3697i bk1: 64a 3596i bk2: 64a 3547i bk3: 64a 3440i bk4: 64a 2625i bk5: 64a 2783i bk6: 64a 2719i bk7: 64a 2743i bk8: 0a 3813i bk9: 0a 3814i bk10: 0a 3815i bk11: 0a 3816i bk12: 0a 3816i bk13: 0a 3816i bk14: 0a 3816i bk15: 0a 3818i 

------------------------------------------------------------------------

Row_Buffer_Locality = 0.968750
Row_Buffer_Locality_read = 0.968750
Row_Buffer_Locality_write = 0.968750
Bank_Level_Parallism = 2.801690
Bank_Level_Parallism_Col = 2.797116
Bank_Level_Parallism_Ready = 2.063802
write_to_read_ratio_blp_rw_average = 0.413020
GrpLevelPara = 1.000000 

BW Util details:
bwutil = 0.402410 
total_CMD = 3817 
util_bw = 1536 
Wasted_Col = 478 
Wasted_Row = 0 
Idle = 1803 

BW Util Bottlenecks: 
RCDc_limit = 13 
RCDWRc_limit = 0 
WTRc_limit = 576 
RTWc_limit = 667 
CCDLc_limit = 0 
rwq = 0 
CCDLc_limit_alone = 0 
WTRc_limit_alone = 576 
RTWc_limit_alone = 667 

Commands details: 
total_CMD = 3817 
n_nop = 3041 
Read = 256 
Write = 256 
L2_Alloc = 256 
L2_WB = 0 
n_act = 8 
n_pre = 0 
n_ref = 0 
n_req = 256 
total_req = 768 

Dual Bus Interface Util: 
issued_total_row = 8 
issued_total_col = 768 
Row_Bus_Util =  0.002096 
CoL_Bus_Util = 0.201205 
Either_Row_CoL_Bus_Util = 0.203301 
Issued_on_Two_Bus_Simul_Util = 0.000000 
issued_two_Eff = 0.000000 
queue_avg = 17.174221 


dram_util_bins: 0 0 0 0 0 0 0 0 0 0
dram_eff_bins: 0 0 0 0 0 0 0 0 0 0
mrqq: max=64 avg=17.1742
Memory Partition 2: 
Cache L2_bank_004:
MSHR contents

Cache L2_bank_005:
MSHR contents

In Dram Latency Queue (total = 0): 
DRAM[2]: 16 bks, busW=4 BL=8 CL=12, tRRD=6 tCCD=2, tRCD=12 tRAS=28 tRP=12 tRC=40
n_cmd=3817 n_nop=3043 n_act=8 n_pre=0 n_ref_event=0 n_req=255 n_rd=256 n_rd_L2_A=256 n_write=254 n_wr_bk=0 bw_util=0.4014
n_activity=2164 dram_eff=0.7079
bk0: 64a 3699i bk1: 64a 3570i bk2: 64a 3554i bk3: 64a 3453i bk4: 64a 3065i bk5: 64a 2838i bk6: 64a 2791i bk7: 64a 2901i bk8: 0a 3813i bk9: 0a 3814i bk10: 0a 3816i bk11: 0a 3817i bk12: 0a 3817i bk13: 0a 3817i bk14: 0a 3817i bk15: 0a 3817i 

------------------------------------------------------------------------

Row_Buffer_Locality = 0.968627
Row_Buffer_Locality_read = 0.968750
Row_Buffer_Locality_write = 0.968504
Bank_Level_Parallism = 2.292581
Bank_Level_Parallism_Col = 2.289117
Bank_Level_Parallism_Ready = 1.844648
write_to_read_ratio_blp_rw_average = 0.404834
GrpLevelPara = 1.000000 

BW Util details:
bwutil = 0.401362 
total_CMD = 3817 
util_bw = 1532 
Wasted_Col = 613 
Wasted_Row = 0 
Idle = 1672 

BW Util Bottlenecks: 
RCDc_limit = 13 
RCDWRc_limit = 13 
WTRc_limit = 588 
RTWc_limit = 640 
CCDLc_limit = 0 
rwq = 0 
CCDLc_limit_alone = 0 
WTRc_limit_alone = 588 
RTWc_limit_alone = 640 

Commands details: 
total_CMD = 3817 
n_nop = 3043 
Read = 256 
Write = 254 
L2_Alloc = 256 
L2_WB = 0 
n_act = 8 
n_pre = 0 
n_ref = 0 
n_req = 255 
total_req = 766 

Dual Bus Interface Util: 
issued_total_row = 8 
issued_total_col = 766 
Row_Bus_Util =  0.002096 
CoL_Bus_Util = 0.200681 
Either_Row_CoL_Bus_Util = 0.202777 
Issued_on_Two_Bus_Simul_Util = 0.000000 
issued_two_Eff = 0.000000 
queue_avg = 16.526854 


dram_util_bins: 0 0 0 0 0 0 0 0 0 0
dram_eff_bins: 0 0 0 0 0 0 0 0 0 0
mrqq: max=64 avg=16.5269
Memory Partition 3: 
Cache L2_bank_006:
MSHR contents

Cache L2_bank_007:
MSHR contents

In Dram Latency Queue (total = 0): 
DRAM[3]: 16 bks, busW=4 BL=8 CL=12, tRRD=6 tCCD=2, tRCD=12 tRAS=28 tRP=12 tRC=40
n_cmd=3817 n_nop=3041 n_act=8 n_pre=0 n_ref_event=0 n_req=256 n_rd=256 n_rd_L2_A=256 n_write=256 n_wr_bk=0 bw_util=0.4024
n_activity=2033 dram_eff=0.7555
bk0: 64a 3697i bk1: 64a 3595i bk2: 64a 3538i bk3: 64a 3438i bk4: 64a 2641i bk5: 64a 2699i bk6: 64a 2717i bk7: 64a 2819i bk8: 0a 3814i bk9: 0a 3815i bk10: 0a 3815i bk11: 0a 3815i bk12: 0a 3816i bk13: 0a 3816i bk14: 0a 3818i bk15: 0a 3819i 

------------------------------------------------------------------------

Row_Buffer_Locality = 0.968750
Row_Buffer_Locality_read = 0.968750
Row_Buffer_Locality_write = 0.968750
Bank_Level_Parallism = 2.803181
Bank_Level_Parallism_Col = 2.799105
Bank_Level_Parallism_Ready = 2.075521
write_to_read_ratio_blp_rw_average = 0.417371
GrpLevelPara = 1.000000 

BW Util details:
bwutil = 0.402410 
total_CMD = 3817 
util_bw = 1536 
Wasted_Col = 478 
Wasted_Row = 0 
Idle = 1803 

BW Util Bottlenecks: 
RCDc_limit = 12 
RCDWRc_limit = 7 
WTRc_limit = 576 
RTWc_limit = 679 
CCDLc_limit = 0 
rwq = 0 
CCDLc_limit_alone = 0 
WTRc_limit_alone = 576 
RTWc_limit_alone = 679 

Commands details: 
total_CMD = 3817 
n_nop = 3041 
Read = 256 
Write = 256 
L2_Alloc = 256 
L2_WB = 0 
n_act = 8 
n_pre = 0 
n_ref = 0 
n_req = 256 
total_req = 768 

Dual Bus Interface Util: 
issued_total_row = 8 
issued_total_col = 768 
Row_Bus_Util =  0.002096 
CoL_Bus_Util = 0.201205 
Either_Row_CoL_Bus_Util = 0.203301 
Issued_on_Two_Bus_Simul_Util = 0.000000 
issued_two_Eff = 0.000000 
queue_avg = 17.493582 


dram_util_bins: 0 0 0 0 0 0 0 0 0 0
dram_eff_bins: 0 0 0 0 0 0 0 0 0 0
mrqq: max=64 avg=17.4936
Memory Partition 4: 
Cache L2_bank_008:
MSHR contents

Cache L2_bank_009:
MSHR contents

In Dram Latency Queue (total = 0): 
DRAM[4]: 16 bks, busW=4 BL=8 CL=12, tRRD=6 tCCD=2, tRCD=12 tRAS=28 tRP=12 tRC=40
n_cmd=3817 n_nop=3041 n_act=8 n_pre=0 n_ref_event=0 n_req=256 n_rd=256 n_rd_L2_A=256 n_write=256 n_wr_bk=0 bw_util=0.4024
n_activity=2118 dram_eff=0.7252
bk0: 64a 3699i bk1: 64a 3603i bk2: 64a 3571i bk3: 64a 3468i bk4: 64a 2895i bk5: 64a 2811i bk6: 64a 2830i bk7: 64a 2899i bk8: 0a 3814i bk9: 0a 3814i bk10: 0a 3815i bk11: 0a 3816i bk12: 0a 3816i bk13: 0a 3816i bk14: 0a 3816i bk15: 0a 3816i 

------------------------------------------------------------------------

Row_Buffer_Locality = 0.968750
Row_Buffer_Locality_read = 0.968750
Row_Buffer_Locality_write = 0.968750
Bank_Level_Parallism = 2.378558
Bank_Level_Parallism_Col = 2.376068
Bank_Level_Parallism_Ready = 1.854167
write_to_read_ratio_blp_rw_average = 0.415875
GrpLevelPara = 1.000000 

BW Util details:
bwutil = 0.402410 
total_CMD = 3817 
util_bw = 1536 
Wasted_Col = 573 
Wasted_Row = 0 
Idle = 1708 

BW Util Bottlenecks: 
RCDc_limit = 13 
RCDWRc_limit = 7 
WTRc_limit = 576 
RTWc_limit = 669 
CCDLc_limit = 0 
rwq = 0 
CCDLc_limit_alone = 0 
WTRc_limit_alone = 576 
RTWc_limit_alone = 669 

Commands details: 
total_CMD = 3817 
n_nop = 3041 
Read = 256 
Write = 256 
L2_Alloc = 256 
L2_WB = 0 
n_act = 8 
n_pre = 0 
n_ref = 0 
n_req = 256 
total_req = 768 

Dual Bus Interface Util: 
issued_total_row = 8 
issued_total_col = 768 
Row_Bus_Util =  0.002096 
CoL_Bus_Util = 0.201205 
Either_Row_CoL_Bus_Util = 0.203301 
Issued_on_Two_Bus_Simul_Util = 0.000000 
issued_two_Eff = 0.000000 
queue_avg = 17.115274 


dram_util_bins: 0 0 0 0 0 0 0 0 0 0
dram_eff_bins: 0 0 0 0 0 0 0 0 0 0
mrqq: max=64 avg=17.1153
Memory Partition 5: 
Cache L2_bank_010:
MSHR contents

Cache L2_bank_011:
MSHR contents

In Dram Latency Queue (total = 0): 
DRAM[5]: 16 bks, busW=4 BL=8 CL=12, tRRD=6 tCCD=2, tRCD=12 tRAS=28 tRP=12 tRC=40
n_cmd=3817 n_nop=3041 n_act=8 n_pre=0 n_ref_event=0 n_req=256 n_rd=256 n_rd_L2_A=256 n_write=256 n_wr_bk=0 bw_util=0.4024
n_activity=2086 dram_eff=0.7363
bk0: 64a 3692i bk1: 64a 3616i bk2: 64a 3581i bk3: 64a 3473i bk4: 64a 2705i bk5: 64a 2758i bk6: 64a 2783i bk7: 64a 2777i bk8: 0a 3814i bk9: 0a 3815i bk10: 0a 3816i bk11: 0a 3816i bk12: 0a 3816i bk13: 0a 3816i bk14: 0a 3816i bk15: 0a 3818i 

------------------------------------------------------------------------

Row_Buffer_Locality = 0.968750
Row_Buffer_Locality_read = 0.968750
Row_Buffer_Locality_write = 0.968750
Bank_Level_Parallism = 2.636763
Bank_Level_Parallism_Col = 2.632992
Bank_Level_Parallism_Ready = 1.945312
write_to_read_ratio_blp_rw_average = 0.424028
GrpLevelPara = 1.000000 

BW Util details:
bwutil = 0.402410 
total_CMD = 3817 
util_bw = 1536 
Wasted_Col = 519 
Wasted_Row = 0 
Idle = 1762 

BW Util Bottlenecks: 
RCDc_limit = 15 
RCDWRc_limit = 10 
WTRc_limit = 576 
RTWc_limit = 686 
CCDLc_limit = 0 
rwq = 0 
CCDLc_limit_alone = 0 
WTRc_limit_alone = 576 
RTWc_limit_alone = 686 

Commands details: 
total_CMD = 3817 
n_nop = 3041 
Read = 256 
Write = 256 
L2_Alloc = 256 
L2_WB = 0 
n_act = 8 
n_pre = 0 
n_ref = 0 
n_req = 256 
total_req = 768 

Dual Bus Interface Util: 
issued_total_row = 8 
issued_total_col = 768 
Row_Bus_Util =  0.002096 
CoL_Bus_Util = 0.201205 
Either_Row_CoL_Bus_Util = 0.203301 
Issued_on_Two_Bus_Simul_Util = 0.000000 
issued_two_Eff = 0.000000 
queue_avg = 16.806917 


dram_util_bins: 0 0 0 0 0 0 0 0 0 0
dram_eff_bins: 0 0 0 0 0 0 0 0 0 0
mrqq: max=64 avg=16.8069
Memory Partition 6: 
Cache L2_bank_012:
MSHR contents

Cache L2_bank_013:
MSHR contents

In Dram Latency Queue (total = 0): 
DRAM[6]: 16 bks, busW=4 BL=8 CL=12, tRRD=6 tCCD=2, tRCD=12 tRAS=28 tRP=12 tRC=40
n_cmd=3817 n_nop=3041 n_act=8 n_pre=0 n_ref_event=0 n_req=256 n_rd=256 n_rd_L2_A=256 n_write=256 n_wr_bk=0 bw_util=0.4024
n_activity=2099 dram_eff=0.7318
bk0: 64a 3701i bk1: 64a 3602i bk2: 64a 3572i bk3: 64a 3469i bk4: 64a 2741i bk5: 64a 2845i bk6: 64a 2777i bk7: 64a 2807i bk8: 0a 3814i bk9: 0a 3814i bk10: 0a 3814i bk11: 0a 3815i bk12: 0a 3816i bk13: 0a 3816i bk14: 0a 3816i bk15: 0a 3816i 

------------------------------------------------------------------------

Row_Buffer_Locality = 0.968750
Row_Buffer_Locality_read = 0.968750
Row_Buffer_Locality_write = 0.968750
Bank_Level_Parallism = 2.535063
Bank_Level_Parallism_Col = 2.531250
Bank_Level_Parallism_Ready = 1.942708
write_to_read_ratio_blp_rw_average = 0.414183
GrpLevelPara = 1.000000 

BW Util details:
bwutil = 0.402410 
total_CMD = 3817 
util_bw = 1536 
Wasted_Col = 548 
Wasted_Row = 0 
Idle = 1733 

BW Util Bottlenecks: 
RCDc_limit = 12 
RCDWRc_limit = 11 
WTRc_limit = 576 
RTWc_limit = 679 
CCDLc_limit = 0 
rwq = 0 
CCDLc_limit_alone = 0 
WTRc_limit_alone = 576 
RTWc_limit_alone = 679 

Commands details: 
total_CMD = 3817 
n_nop = 3041 
Read = 256 
Write = 256 
L2_Alloc = 256 
L2_WB = 0 
n_act = 8 
n_pre = 0 
n_ref = 0 
n_req = 256 
total_req = 768 

Dual Bus Interface Util: 
issued_total_row = 8 
issued_total_col = 768 
Row_Bus_Util =  0.002096 
CoL_Bus_Util = 0.201205 
Either_Row_CoL_Bus_Util = 0.203301 
Issued_on_Two_Bus_Simul_Util = 0.000000 
issued_two_Eff = 0.000000 
queue_avg = 16.902542 


dram_util_bins: 0 0 0 0 0 0 0 0 0 0
dram_eff_bins: 0 0 0 0 0 0 0 0 0 0
mrqq: max=64 avg=16.9025
Memory Partition 7: 
Cache L2_bank_014:
MSHR contents

Cache L2_bank_015:
MSHR contents

In Dram Latency Queue (total = 0): 
DRAM[7]: 16 bks, busW=4 BL=8 CL=12, tRRD=6 tCCD=2, tRCD=12 tRAS=28 tRP=12 tRC=40
n_cmd=3817 n_nop=3041 n_act=8 n_pre=0 n_ref_event=0 n_req=256 n_rd=256 n_rd_L2_A=256 n_write=256 n_wr_bk=0 bw_util=0.4024
n_activity=2086 dram_eff=0.7363
bk0: 64a 3690i bk1: 64a 3614i bk2: 64a 3578i bk3: 64a 3474i bk4: 64a 2720i bk5: 64a 2662i bk6: 64a 2809i bk7: 64a 2824i bk8: 0a 3815i bk9: 0a 3816i bk10: 0a 3816i bk11: 0a 3816i bk12: 0a 3816i bk13: 0a 3817i bk14: 0a 3817i bk15: 0a 3817i 

------------------------------------------------------------------------

Row_Buffer_Locality = 0.968750
Row_Buffer_Locality_read = 0.968750
Row_Buffer_Locality_write = 0.968750
Bank_Level_Parallism = 2.641638
Bank_Level_Parallism_Col = 2.637561
Bank_Level_Parallism_Ready = 1.933594
write_to_read_ratio_blp_rw_average = 0.432764
GrpLevelPara = 1.000000 

BW Util details:
bwutil = 0.402410 
total_CMD = 3817 
util_bw = 1536 
Wasted_Col = 519 
Wasted_Row = 0 
Idle = 1762 

BW Util Bottlenecks: 
RCDc_limit = 16 
RCDWRc_limit = 2 
WTRc_limit = 576 
RTWc_limit = 680 
CCDLc_limit = 0 
rwq = 0 
CCDLc_limit_alone = 0 
WTRc_limit_alone = 576 
RTWc_limit_alone = 680 

Commands details: 
total_CMD = 3817 
n_nop = 3041 
Read = 256 
Write = 256 
L2_Alloc = 256 
L2_WB = 0 
n_act = 8 
n_pre = 0 
n_ref = 0 
n_req = 256 
total_req = 768 

Dual Bus Interface Util: 
issued_total_row = 8 
issued_total_col = 768 
Row_Bus_Util =  0.002096 
CoL_Bus_Util = 0.201205 
Either_Row_CoL_Bus_Util = 0.203301 
Issued_on_Two_Bus_Simul_Util = 0.000000 
issued_two_Eff = 0.000000 
queue_avg = 16.403721 


dram_util_bins: 0 0 0 0 0 0 0 0 0 0
dram_eff_bins: 0 0 0 0 0 0 0 0 0 0
mrqq: max=64 avg=16.4037

========= L2 cache stats =========
L2_cache_bank[0]: Access = 148, Miss = 65, Miss_rate = 0.439, Pending_hits = 82, Reservation_fails = 11
L2_cache_bank[1]: Access = 148, Miss = 65, Miss_rate = 0.439, Pending_hits = 83, Reservation_fails = 12
L2_cache_bank[2]: Access = 128, Miss = 64, Miss_rate = 0.500, Pending_hits = 64, Reservation_fails = 16
L2_cache_bank[3]: Access = 128, Miss = 64, Miss_rate = 0.500, Pending_hits = 64, Reservation_fails = 13
L2_cache_bank[4]: Access = 128, Miss = 64, Miss_rate = 0.500, Pending_hits = 64, Reservation_fails = 6
L2_cache_bank[5]: Access = 128, Miss = 64, Miss_rate = 0.500, Pending_hits = 63, Reservation_fails = 11
L2_cache_bank[6]: Access = 128, Miss = 64, Miss_rate = 0.500, Pending_hits = 64, Reservation_fails = 4
L2_cache_bank[7]: Access = 128, Miss = 64, Miss_rate = 0.500, Pending_hits = 64, Reservation_fails = 13
L2_cache_bank[8]: Access = 128, Miss = 64, Miss_rate = 0.500, Pending_hits = 64, Reservation_fails = 4
L2_cache_bank[9]: Access = 128, Miss = 64, Miss_rate = 0.500, Pending_hits = 64, Reservation_fails = 11
L2_cache_bank[10]: Access = 128, Miss = 64, Miss_rate = 0.500, Pending_hits = 64, Reservation_fails = 11
L2_cache_bank[11]: Access = 128, Miss = 64, Miss_rate = 0.500, Pending_hits = 64, Reservation_fails = 9
L2_cache_bank[12]: Access = 128, Miss = 64, Miss_rate = 0.500, Pending_hits = 64, Reservation_fails = 11
L2_cache_bank[13]: Access = 128, Miss = 64, Miss_rate = 0.500, Pending_hits = 64, Reservation_fails = 10
L2_cache_bank[14]: Access = 128, Miss = 64, Miss_rate = 0.500, Pending_hits = 64, Reservation_fails = 9
L2_cache_bank[15]: Access = 128, Miss = 64, Miss_rate = 0.500, Pending_hits = 64, Reservation_fails = 13
L2_total_cache_accesses = 2088
L2_total_cache_misses = 1026
L2_total_cache_miss_rate = 0.4914
L2_total_cache_pending_hits = 1060
L2_total_cache_reservation_fails = 164
L2_total_cache_breakdown:
	L2_cache_stats_breakdown[GLOBAL_ACC_R][HIT] = 0
	L2_cache_stats_breakdown[GLOBAL_ACC_R][HIT_RESERVED] = 512
	L2_cache_stats_breakdown[GLOBAL_ACC_R][MISS] = 512
	L2_cache_stats_breakdown[GLOBAL_ACC_R][RESERVATION_FAIL] = 0
	L2_cache_stats_breakdown[GLOBAL_ACC_R][SECTOR_MISS] = 0
	L2_cache_stats_breakdown[GLOBAL_ACC_R][MSHR_HIT] = 512
	L2_cache_stats_breakdown[LOCAL_ACC_R][HIT] = 0
	L2_cache_stats_breakdown[LOCAL_ACC_R][HIT_RESERVED] = 0
	L2_cache_stats_breakdown[LOCAL_ACC_R][MISS] = 0
	L2_cache_stats_breakdown[LOCAL_ACC_R][RESERVATION_FAIL] = 0
	L2_cache_stats_breakdown[LOCAL_ACC_R][SECTOR_MISS] = 0
	L2_cache_stats_breakdown[LOCAL_ACC_R][MSHR_HIT] = 0
	L2_cache_stats_breakdown[CONST_ACC_R][HIT] = 0
	L2_cache_stats_breakdown[CONST_ACC_R][HIT_RESERVED] = 0
	L2_cache_stats_breakdown[CONST_ACC_R][MISS] = 0
	L2_cache_stats_breakdown[CONST_ACC_R][RESERVATION_FAIL] = 0
	L2_cache_stats_breakdown[CONST_ACC_R][SECTOR_MISS] = 0
	L2_cache_stats_breakdown[CONST_ACC_R][MSHR_HIT] = 0
	L2_cache_stats_breakdown[TEXTURE_ACC_R][HIT] = 0
	L2_cache_stats_breakdown[TEXTURE_ACC_R][HIT_RESERVED] = 0
	L2_cache_stats_breakdown[TEXTURE_ACC_R][MISS] = 0
	L2_cache_stats_breakdown[TEXTURE_ACC_R][RESERVATION_FAIL] = 0
	L2_cache_stats_breakdown[TEXTURE_ACC_R][SECTOR_MISS] = 0
	L2_cache_stats_breakdown[TEXTURE_ACC_R][MSHR_HIT] = 0
	L2_cache_stats_breakdown[GLOBAL_ACC_W][HIT] = 2
	L2_cache_stats_breakdown[GLOBAL_ACC_W][HIT_RESERVED] = 510
	L2_cache_stats_breakdown[GLOBAL_ACC_W][MISS] = 512
	L2_cache_stats_breakdown[GLOBAL_ACC_W][RESERVATION_FAIL] = 164
	L2_cache_stats_breakdown[GLOBAL_ACC_W][SECTOR_MISS] = 0
	L2_cache_stats_breakdown[GLOBAL_ACC_W][MSHR_HIT] = 0
	L2_cache_stats_breakdown[LOCAL_ACC_W][HIT] = 0
	L2_cache_stats_breakdown[LOCAL_ACC_W][HIT_RESERVED] = 0
	L2_cache_stats_breakdown[LOCAL_ACC_W][MISS] = 0
	L2_cache_stats_breakdown[LOCAL_ACC_W][RESERVATION_FAIL] = 0
	L2_cache_stats_breakdown[LOCAL_ACC_W][SECTOR_MISS] = 0
	L2_cache_stats_breakdown[LOCAL_ACC_W][MSHR_HIT] = 0
	L2_cache_stats_breakdown[L1_WRBK_ACC][HIT] = 0
	L2_cache_stats_breakdown[L1_WRBK_ACC][HIT_RESERVED] = 0
	L2_cache_stats_breakdown[L1_WRBK_ACC][MISS] = 0
	L2_cache_stats_breakdown[L1_WRBK_ACC][RESERVATION_FAIL] = 0
	L2_cache_stats_breakdown[L1_WRBK_ACC][SECTOR_MISS] = 0
	L2_cache_stats_breakdown[L1_WRBK_ACC][MSHR_HIT] = 0
	L2_cache_stats_breakdown[L2_WRBK_ACC][HIT] = 0
	L2_cache_stats_breakdown[L2_WRBK_ACC][HIT_RESERVED] = 0
	L2_cache_stats_breakdown[L2_WRBK_ACC][MISS] = 0
	L2_cache_stats_breakdown[L2_WRBK_ACC][RESERVATION_FAIL] = 0
	L2_cache_stats_breakdown[L2_WRBK_ACC][SECTOR_MISS] = 0
	L2_cache_stats_breakdown[L2_WRBK_ACC][MSHR_HIT] = 0
	L2_cache_stats_breakdown[INST_ACC_R][HIT] = 0
	L2_cache_stats_breakdown[INST_ACC_R][HIT_RESERVED] = 38
	L2_cache_stats_breakdown[INST_ACC_R][MISS] = 2
	L2_cache_stats_breakdown[INST_ACC_R][RESERVATION_FAIL] = 0
	L2_cache_stats_breakdown[INST_ACC_R][SECTOR_MISS] = 0
	L2_cache_stats_breakdown[INST_ACC_R][MSHR_HIT] = 38
	L2_cache_stats_breakdown[L1_WR_ALLOC_R][HIT] = 0
	L2_cache_stats_breakdown[L1_WR_ALLOC_R][HIT_RESERVED] = 0
	L2_cache_stats_breakdown[L1_WR_ALLOC_R][MISS] = 0
	L2_cache_stats_breakdown[L1_WR_ALLOC_R][RESERVATION_FAIL] = 0
	L2_cache_stats_breakdown[L1_WR_ALLOC_R][SECTOR_MISS] = 0
	L2_cache_stats_breakdown[L1_WR_ALLOC_R][MSHR_HIT] = 0
	L2_cache_stats_breakdown[L2_WR_ALLOC_R][HIT] = 0
	L2_cache_stats_breakdown[L2_WR_ALLOC_R][HIT_RESERVED] = 0
	L2_cache_stats_breakdown[L2_WR_ALLOC_R][MISS] = 0
	L2_cache_stats_breakdown[L2_WR_ALLOC_R][RESERVATION_FAIL] = 0
	L2_cache_stats_breakdown[L2_WR_ALLOC_R][SECTOR_MISS] = 0
	L2_cache_stats_breakdown[L2_WR_ALLOC_R][MSHR_HIT] = 510
	L2_cache_stats_breakdown[GLOBAL_ACC_R][TOTAL_ACCESS] = 1024
	L2_cache_stats_breakdown[GLOBAL_ACC_W][TOTAL_ACCESS] = 1024
	L2_cache_stats_breakdown[INST_ACC_R][TOTAL_ACCESS] = 40
L2_total_cache_reservation_fail_breakdown:
	L2_cache_stats_fail_breakdown[GLOBAL_ACC_W][MISS_QUEUE_FULL] = 164
L2_cache_data_port_util = 0.000
L2_cache_fill_port_util = 0.105

icnt_total_pkts_mem_to_simt=4296
icnt_total_pkts_simt_to_mem=4136
LD_mem_lat_dist  0 0 0 0 0 0 0 0 0 0 0 0 0 0 0 0 0 0 0 0 0 0 0 0 0 0 0
ST_mem_lat_dist  0 0 0 0 0 0 0 0 0 0 0 0 0 0 0 0 0 0 0 0 0 0 0 0 0 0 0
----------------------------Interconnect-DETAILS--------------------------------
Class 0:
Packet latency average = 28.9193
	minimum = 6
	maximum = 225
Network latency average = 18.8341
	minimum = 6
	maximum = 223
Slowest packet = 2443
Flit latency average = 17.9357
	minimum = 6
	maximum = 221
Slowest flit = 5282
Fragmentation average = 0.26317
	minimum = 0
	maximum = 206
Injected packet rate average = 0.0340342
	minimum = 0 (at node 36)
	maximum = 0.0603097 (at node 20)
Accepted packet rate average = 0.0340342
	minimum = 0 (at node 36)
	maximum = 0.0603097 (at node 20)
Injected flit rate average = 0.0687205
	minimum = 0 (at node 36)
	maximum = 0.145069 (at node 20)
Accepted flit rate average= 0.0687205
	minimum = 0 (at node 36)
	maximum = 0.112469 (at node 20)
Injected packet length average = 2.01916
Accepted packet length average = 2.01916
Total in-flight flits = 0 (0 measured)
====== Overall Traffic Statistics ======
====== Traffic class 0 ======
Packet latency average = 28.9193 (1 samples)
	minimum = 6 (1 samples)
	maximum = 225 (1 samples)
Network latency average = 18.8341 (1 samples)
	minimum = 6 (1 samples)
	maximum = 223 (1 samples)
Flit latency average = 17.9357 (1 samples)
	minimum = 6 (1 samples)
	maximum = 221 (1 samples)
Fragmentation average = 0.26317 (1 samples)
	minimum = 0 (1 samples)
	maximum = 206 (1 samples)
Injected packet rate average = 0.0340342 (1 samples)
	minimum = 0 (1 samples)
	maximum = 0.0603097 (1 samples)
Accepted packet rate average = 0.0340342 (1 samples)
	minimum = 0 (1 samples)
	maximum = 0.0603097 (1 samples)
Injected flit rate average = 0.0687205 (1 samples)
	minimum = 0 (1 samples)
	maximum = 0.145069 (1 samples)
Accepted flit rate average = 0.0687205 (1 samples)
	minimum = 0 (1 samples)
	maximum = 0.112469 (1 samples)
Injected packet size average = 2.01916 (1 samples)
Accepted packet size average = 2.01916 (1 samples)
Hops average = 1 (1 samples)
----------------------------END-of-Interconnect-DETAILS-------------------------


gpgpu_simulation_time = 0 days, 0 hrs, 0 min, 1 sec (1 sec)
gpgpu_simulation_rate = 311296 (inst/sec)
gpgpu_simulation_rate = 2454 (cycle/sec)
gpgpu_silicon_slowdown = 654849x
Processing kernel /benchrun/accelsim-sass/sm6_gtx1080/cuda10-transpose/input-repeat1-dimx128-dimy128/results/traces/kernel-2.traceg
-kernel name = _Z4copyPfS_ii
-kernel id = 2
-grid dim = (8,8,1)
-block dim = (16,16,1)
-shmem = 0
-nregs = 6
-binary version = 61
-cuda stream id = 0
-shmem base_addr = 0x00007f1e9a000000
-local mem base_addr = 0x00007f1e98000000
-nvbit version = 1.5.5
-accelsim tracer version = 3
Header info loaded for kernel command : /benchrun/accelsim-sass/sm6_gtx1080/cuda10-transpose/input-repeat1-dimx128-dimy128/results/traces/kernel-2.traceg
launching kernel name: _Z4copyPfS_ii uid: 2
GPGPU-Sim uArch: Shader 4 bind to kernel 2 '_Z4copyPfS_ii'
thread block = 0,0,0
GPGPU-Sim uArch: Shader 5 bind to kernel 2 '_Z4copyPfS_ii'
thread block = 1,0,0
GPGPU-Sim uArch: Shader 6 bind to kernel 2 '_Z4copyPfS_ii'
thread block = 2,0,0
GPGPU-Sim uArch: Shader 7 bind to kernel 2 '_Z4copyPfS_ii'
thread block = 3,0,0
GPGPU-Sim uArch: Shader 8 bind to kernel 2 '_Z4copyPfS_ii'
thread block = 4,0,0
GPGPU-Sim uArch: Shader 9 bind to kernel 2 '_Z4copyPfS_ii'
thread block = 5,0,0
GPGPU-Sim uArch: Shader 10 bind to kernel 2 '_Z4copyPfS_ii'
thread block = 6,0,0
GPGPU-Sim uArch: Shader 11 bind to kernel 2 '_Z4copyPfS_ii'
thread block = 7,0,0
GPGPU-Sim uArch: Shader 12 bind to kernel 2 '_Z4copyPfS_ii'
thread block = 0,1,0
GPGPU-Sim uArch: Shader 13 bind to kernel 2 '_Z4copyPfS_ii'
thread block = 1,1,0
GPGPU-Sim uArch: Shader 14 bind to kernel 2 '_Z4copyPfS_ii'
thread block = 2,1,0
GPGPU-Sim uArch: Shader 15 bind to kernel 2 '_Z4copyPfS_ii'
thread block = 3,1,0
GPGPU-Sim uArch: Shader 16 bind to kernel 2 '_Z4copyPfS_ii'
thread block = 4,1,0
GPGPU-Sim uArch: Shader 17 bind to kernel 2 '_Z4copyPfS_ii'
thread block = 5,1,0
GPGPU-Sim uArch: Shader 18 bind to kernel 2 '_Z4copyPfS_ii'
thread block = 6,1,0
GPGPU-Sim uArch: Shader 19 bind to kernel 2 '_Z4copyPfS_ii'
thread block = 7,1,0
GPGPU-Sim uArch: Shader 0 bind to kernel 2 '_Z4copyPfS_ii'
thread block = 0,2,0
GPGPU-Sim uArch: Shader 1 bind to kernel 2 '_Z4copyPfS_ii'
thread block = 1,2,0
[...]
util_bw = 1552 
Wasted_Col = 502 
Wasted_Row = 24 
Idle = 40880 

BW Util Bottlenecks: 
RCDc_limit = 37 
RCDWRc_limit = 0 
WTRc_limit = 576 
RTWc_limit = 667 
CCDLc_limit = 0 
rwq = 0 
CCDLc_limit_alone = 0 
WTRc_limit_alone = 576 
RTWc_limit_alone = 667 

Commands details: 
total_CMD = 42958 
n_nop = 42170 
Read = 264 
Write = 256 
L2_Alloc = 256 
L2_WB = 0 
n_act = 10 
n_pre = 2 
n_ref = 0 
n_req = 258 
total_req = 776 

Dual Bus Interface Util: 
issued_total_row = 12 
issued_total_col = 776 
Row_Bus_Util =  0.000279 
CoL_Bus_Util = 0.018064 
Either_Row_CoL_Bus_Util = 0.018343 
Issued_on_Two_Bus_Simul_Util = 0.000000 
issued_two_Eff = 0.000000 
queue_avg = 1.526002 


dram_util_bins: 0 0 0 0 0 0 0 0 0 0
dram_eff_bins: 0 0 0 0 0 0 0 0 0 0
mrqq: max=64 avg=1.526
Memory Partition 2: 
Cache L2_bank_004:
MSHR contents

Cache L2_bank_005:
MSHR contents

In Dram Latency Queue (total = 0): 
DRAM[2]: 16 bks, busW=4 BL=8 CL=12, tRRD=6 tCCD=2, tRCD=12 tRAS=28 tRP=12 tRC=40
n_cmd=42958 n_nop=42172 n_act=10 n_pre=2 n_ref_event=0 n_req=257 n_rd=264 n_rd_L2_A=256 n_write=254 n_wr_bk=0 bw_util=0.03604
n_activity=2268 dram_eff=0.6825
bk0: 68a 42810i bk1: 68a 42680i bk2: 64a 42695i bk3: 64a 42594i bk4: 64a 42206i bk5: 64a 41979i bk6: 64a 41932i bk7: 64a 42042i bk8: 0a 42954i bk9: 0a 42955i bk10: 0a 42957i bk11: 0a 42958i bk12: 0a 42958i bk13: 0a 42958i bk14: 0a 42958i bk15: 0a 42958i 

------------------------------------------------------------------------

Row_Buffer_Locality = 0.961089
Row_Buffer_Locality_read = 0.953846
Row_Buffer_Locality_write = 0.968504
Bank_Level_Parallism = 2.256236
Bank_Level_Parallism_Col = 2.267800
Bank_Level_Parallism_Ready = 1.835917
write_to_read_ratio_blp_rw_average = 0.398140
GrpLevelPara = 1.000000 

BW Util details:
bwutil = 0.036035 
total_CMD = 42958 
util_bw = 1548 
Wasted_Col = 637 
Wasted_Row = 24 
Idle = 40749 

BW Util Bottlenecks: 
RCDc_limit = 37 
RCDWRc_limit = 13 
WTRc_limit = 588 
RTWc_limit = 640 
CCDLc_limit = 0 
rwq = 0 
CCDLc_limit_alone = 0 
WTRc_limit_alone = 588 
RTWc_limit_alone = 640 

Commands details: 
total_CMD = 42958 
n_nop = 42172 
Read = 264 
Write = 254 
L2_Alloc = 256 
L2_WB = 0 
n_act = 10 
n_pre = 2 
n_ref = 0 
n_req = 257 
total_req = 774 

Dual Bus Interface Util: 
issued_total_row = 12 
issued_total_col = 774 
Row_Bus_Util =  0.000279 
CoL_Bus_Util = 0.018018 
Either_Row_CoL_Bus_Util = 0.018297 
Issued_on_Two_Bus_Simul_Util = 0.000000 
issued_two_Eff = 0.000000 
queue_avg = 1.468481 


dram_util_bins: 0 0 0 0 0 0 0 0 0 0
dram_eff_bins: 0 0 0 0 0 0 0 0 0 0
mrqq: max=64 avg=1.46848
Memory Partition 3: 
Cache L2_bank_006:
MSHR contents

Cache L2_bank_007:
MSHR contents

In Dram Latency Queue (total = 0): 
DRAM[3]: 16 bks, busW=4 BL=8 CL=12, tRRD=6 tCCD=2, tRCD=12 tRAS=28 tRP=12 tRC=40
n_cmd=42958 n_nop=42170 n_act=10 n_pre=2 n_ref_event=0 n_req=258 n_rd=264 n_rd_L2_A=256 n_write=256 n_wr_bk=0 bw_util=0.03613
n_activity=2137 dram_eff=0.7263
bk0: 68a 42808i bk1: 68a 42705i bk2: 64a 42678i bk3: 64a 42579i bk4: 64a 41782i bk5: 64a 41840i bk6: 64a 41858i bk7: 64a 41960i bk8: 0a 42955i bk9: 0a 42956i bk10: 0a 42956i bk11: 0a 42956i bk12: 0a 42957i bk13: 0a 42957i bk14: 0a 42959i bk15: 0a 42961i 

------------------------------------------------------------------------

Row_Buffer_Locality = 0.961240
Row_Buffer_Locality_read = 0.953846
Row_Buffer_Locality_write = 0.968750
Bank_Level_Parallism = 2.749277
Bank_Level_Parallism_Col = 2.767465
Bank_Level_Parallism_Ready = 2.064433
write_to_read_ratio_blp_rw_average = 0.410031
GrpLevelPara = 1.000000 

BW Util details:
bwutil = 0.036128 
total_CMD = 42958 
util_bw = 1552 
Wasted_Col = 502 
Wasted_Row = 24 
Idle = 40880 

BW Util Bottlenecks: 
RCDc_limit = 36 
RCDWRc_limit = 7 
WTRc_limit = 576 
RTWc_limit = 679 
CCDLc_limit = 0 
rwq = 0 
CCDLc_limit_alone = 0 
WTRc_limit_alone = 576 
RTWc_limit_alone = 679 

Commands details: 
total_CMD = 42958 
n_nop = 42170 
Read = 264 
Write = 256 
L2_Alloc = 256 
L2_WB = 0 
n_act = 10 
n_pre = 2 
n_ref = 0 
n_req = 258 
total_req = 776 

Dual Bus Interface Util: 
issued_total_row = 12 
issued_total_col = 776 
Row_Bus_Util =  0.000279 
CoL_Bus_Util = 0.018064 
Either_Row_CoL_Bus_Util = 0.018343 
Issued_on_Two_Bus_Simul_Util = 0.000000 
issued_two_Eff = 0.000000 
queue_avg = 1.554379 


dram_util_bins: 0 0 0 0 0 0 0 0 0 0
dram_eff_bins: 0 0 0 0 0 0 0 0 0 0
mrqq: max=64 avg=1.55438
Memory Partition 4: 
Cache L2_bank_008:
MSHR contents

Cache L2_bank_009:
MSHR contents

In Dram Latency Queue (total = 0): 
DRAM[4]: 16 bks, busW=4 BL=8 CL=12, tRRD=6 tCCD=2, tRCD=12 tRAS=28 tRP=12 tRC=40
n_cmd=42958 n_nop=42176 n_act=9 n_pre=1 n_ref_event=0 n_req=257 n_rd=260 n_rd_L2_A=256 n_write=256 n_wr_bk=0 bw_util=0.03594
n_activity=2170 dram_eff=0.7115
bk0: 68a 42810i bk1: 64a 42743i bk2: 64a 42712i bk3: 64a 42609i bk4: 64a 42036i bk5: 64a 41952i bk6: 64a 41971i bk7: 64a 42040i bk8: 0a 42955i bk9: 0a 42955i bk10: 0a 42956i bk11: 0a 42957i bk12: 0a 42957i bk13: 0a 42957i bk14: 0a 42957i bk15: 0a 42957i 

------------------------------------------------------------------------

Row_Buffer_Locality = 0.964981
Row_Buffer_Locality_read = 0.961240
Row_Buffer_Locality_write = 0.968750
Bank_Level_Parallism = 2.358579
Bank_Level_Parallism_Col = 2.364407
Bank_Level_Parallism_Ready = 1.849741
write_to_read_ratio_blp_rw_average = 0.412351
GrpLevelPara = 1.000000 

BW Util details:
bwutil = 0.035942 
total_CMD = 42958 
util_bw = 1544 
Wasted_Col = 585 
Wasted_Row = 12 
Idle = 40817 

BW Util Bottlenecks: 
RCDc_limit = 25 
RCDWRc_limit = 7 
WTRc_limit = 576 
RTWc_limit = 669 
CCDLc_limit = 0 
rwq = 0 
CCDLc_limit_alone = 0 
WTRc_limit_alone = 576 
RTWc_limit_alone = 669 

Commands details: 
total_CMD = 42958 
n_nop = 42176 
Read = 260 
Write = 256 
L2_Alloc = 256 
L2_WB = 0 
n_act = 9 
n_pre = 1 
n_ref = 0 
n_req = 257 
total_req = 772 

Dual Bus Interface Util: 
issued_total_row = 10 
issued_total_col = 772 
Row_Bus_Util =  0.000233 
CoL_Bus_Util = 0.017971 
Either_Row_CoL_Bus_Util = 0.018204 
Issued_on_Two_Bus_Simul_Util = 0.000000 
issued_two_Eff = 0.000000 
queue_avg = 1.520764 


dram_util_bins: 0 0 0 0 0 0 0 0 0 0
dram_eff_bins: 0 0 0 0 0 0 0 0 0 0
mrqq: max=64 avg=1.52076
Memory Partition 5: 
Cache L2_bank_010:
MSHR contents

Cache L2_bank_011:
MSHR contents

In Dram Latency Queue (total = 0): 
DRAM[5]: 16 bks, busW=4 BL=8 CL=12, tRRD=6 tCCD=2, tRCD=12 tRAS=28 tRP=12 tRC=40
n_cmd=42958 n_nop=42182 n_act=8 n_pre=0 n_ref_event=0 n_req=256 n_rd=256 n_rd_L2_A=256 n_write=256 n_wr_bk=0 bw_util=0.03576
n_activity=2086 dram_eff=0.7363
bk0: 64a 42833i bk1: 64a 42757i bk2: 64a 42722i bk3: 64a 42614i bk4: 64a 41846i bk5: 64a 41899i bk6: 64a 41924i bk7: 64a 41918i bk8: 0a 42955i bk9: 0a 42956i bk10: 0a 42957i bk11: 0a 42957i bk12: 0a 42957i bk13: 0a 42957i bk14: 0a 42957i bk15: 0a 42959i 

------------------------------------------------------------------------

Row_Buffer_Locality = 0.968750
Row_Buffer_Locality_read = 0.968750
Row_Buffer_Locality_write = 0.968750
Bank_Level_Parallism = 2.636763
Bank_Level_Parallism_Col = 2.632992
Bank_Level_Parallism_Ready = 1.945312
write_to_read_ratio_blp_rw_average = 0.424028
GrpLevelPara = 1.000000 

BW Util details:
bwutil = 0.035756 
total_CMD = 42958 
util_bw = 1536 
Wasted_Col = 519 
Wasted_Row = 0 
Idle = 40903 

BW Util Bottlenecks: 
RCDc_limit = 15 
RCDWRc_limit = 10 
WTRc_limit = 576 
RTWc_limit = 686 
CCDLc_limit = 0 
rwq = 0 
CCDLc_limit_alone = 0 
WTRc_limit_alone = 576 
RTWc_limit_alone = 686 

Commands details: 
total_CMD = 42958 
n_nop = 42182 
Read = 256 
Write = 256 
L2_Alloc = 256 
L2_WB = 0 
n_act = 8 
n_pre = 0 
n_ref = 0 
n_req = 256 
total_req = 768 

Dual Bus Interface Util: 
issued_total_row = 8 
issued_total_col = 768 
Row_Bus_Util =  0.000186 
CoL_Bus_Util = 0.017878 
Either_Row_CoL_Bus_Util = 0.018064 
Issued_on_Two_Bus_Simul_Util = 0.000000 
issued_two_Eff = 0.000000 
queue_avg = 1.493366 


dram_util_bins: 0 0 0 0 0 0 0 0 0 0
dram_eff_bins: 0 0 0 0 0 0 0 0 0 0
mrqq: max=64 avg=1.49337
Memory Partition 6: 
Cache L2_bank_012:
MSHR contents

Cache L2_bank_013:
MSHR contents

In Dram Latency Queue (total = 0): 
DRAM[6]: 16 bks, busW=4 BL=8 CL=12, tRRD=6 tCCD=2, tRCD=12 tRAS=28 tRP=12 tRC=40
n_cmd=42958 n_nop=42182 n_act=8 n_pre=0 n_ref_event=0 n_req=256 n_rd=256 n_rd_L2_A=256 n_write=256 n_wr_bk=0 bw_util=0.03576
n_activity=2099 dram_eff=0.7318
bk0: 64a 42842i bk1: 64a 42743i bk2: 64a 42713i bk3: 64a 42610i bk4: 64a 41882i bk5: 64a 41986i bk6: 64a 41918i bk7: 64a 41948i bk8: 0a 42955i bk9: 0a 42955i bk10: 0a 42955i bk11: 0a 42956i bk12: 0a 42957i bk13: 0a 42957i bk14: 0a 42957i bk15: 0a 42957i 

------------------------------------------------------------------------

Row_Buffer_Locality = 0.968750
Row_Buffer_Locality_read = 0.968750
Row_Buffer_Locality_write = 0.968750
Bank_Level_Parallism = 2.535063
Bank_Level_Parallism_Col = 2.531250
Bank_Level_Parallism_Ready = 1.942708
write_to_read_ratio_blp_rw_average = 0.414183
GrpLevelPara = 1.000000 

BW Util details:
bwutil = 0.035756 
total_CMD = 42958 
util_bw = 1536 
Wasted_Col = 548 
Wasted_Row = 0 
Idle = 40874 

BW Util Bottlenecks: 
RCDc_limit = 12 
RCDWRc_limit = 11 
WTRc_limit = 576 
RTWc_limit = 679 
CCDLc_limit = 0 
rwq = 0 
CCDLc_limit_alone = 0 
WTRc_limit_alone = 576 
RTWc_limit_alone = 679 

Commands details: 
total_CMD = 42958 
n_nop = 42182 
Read = 256 
Write = 256 
L2_Alloc = 256 
L2_WB = 0 
n_act = 8 
n_pre = 0 
n_ref = 0 
n_req = 256 
total_req = 768 

Dual Bus Interface Util: 
issued_total_row = 8 
issued_total_col = 768 
Row_Bus_Util =  0.000186 
CoL_Bus_Util = 0.017878 
Either_Row_CoL_Bus_Util = 0.018064 
Issued_on_Two_Bus_Simul_Util = 0.000000 
issued_two_Eff = 0.000000 
queue_avg = 1.501862 


dram_util_bins: 0 0 0 0 0 0 0 0 0 0
dram_eff_bins: 0 0 0 0 0 0 0 0 0 0
mrqq: max=64 avg=1.50186
Memory Partition 7: 
Cache L2_bank_014:
MSHR contents

Cache L2_bank_015:
MSHR contents

In Dram Latency Queue (total = 0): 
DRAM[7]: 16 bks, busW=4 BL=8 CL=12, tRRD=6 tCCD=2, tRCD=12 tRAS=28 tRP=12 tRC=40
n_cmd=42958 n_nop=42182 n_act=8 n_pre=0 n_ref_event=0 n_req=256 n_rd=256 n_rd_L2_A=256 n_write=256 n_wr_bk=0 bw_util=0.03576
n_activity=2086 dram_eff=0.7363
bk0: 64a 42831i bk1: 64a 42755i bk2: 64a 42719i bk3: 64a 42615i bk4: 64a 41861i bk5: 64a 41803i bk6: 64a 41950i bk7: 64a 41965i bk8: 0a 42956i bk9: 0a 42957i bk10: 0a 42957i bk11: 0a 42957i bk12: 0a 42957i bk13: 0a 42958i bk14: 0a 42958i bk15: 0a 42958i 

------------------------------------------------------------------------

Row_Buffer_Locality = 0.968750
Row_Buffer_Locality_read = 0.968750
Row_Buffer_Locality_write = 0.968750
Bank_Level_Parallism = 2.641638
Bank_Level_Parallism_Col = 2.637561
Bank_Level_Parallism_Ready = 1.933594
write_to_read_ratio_blp_rw_average = 0.432764
GrpLevelPara = 1.000000 

BW Util details:
bwutil = 0.035756 
total_CMD = 42958 
util_bw = 1536 
Wasted_Col = 519 
Wasted_Row = 0 
Idle = 40903 

BW Util Bottlenecks: 
RCDc_limit = 16 
RCDWRc_limit = 2 
WTRc_limit = 576 
RTWc_limit = 680 
CCDLc_limit = 0 
rwq = 0 
CCDLc_limit_alone = 0 
WTRc_limit_alone = 576 
RTWc_limit_alone = 680 

Commands details: 
total_CMD = 42958 
n_nop = 42182 
Read = 256 
Write = 256 
L2_Alloc = 256 
L2_WB = 0 
n_act = 8 
n_pre = 0 
n_ref = 0 
n_req = 256 
total_req = 768 

Dual Bus Interface Util: 
issued_total_row = 8 
issued_total_col = 768 
Row_Bus_Util =  0.000186 
CoL_Bus_Util = 0.017878 
Either_Row_CoL_Bus_Util = 0.018064 
Issued_on_Two_Bus_Simul_Util = 0.000000 
issued_two_Eff = 0.000000 
queue_avg = 1.457540 


dram_util_bins: 0 0 0 0 0 0 0 0 0 0
dram_eff_bins: 0 0 0 0 0 0 0 0 0 0
mrqq: max=64 avg=1.45754

========= L2 cache stats =========
L2_cache_bank[0]: Access = 2964, Miss = 65, Miss_rate = 0.022, Pending_hits = 82, Reservation_fails = 11
L2_cache_bank[1]: Access = 2964, Miss = 65, Miss_rate = 0.022, Pending_hits = 83, Reservation_fails = 12
L2_cache_bank[2]: Access = 2964, Miss = 65, Miss_rate = 0.022, Pending_hits = 74, Reservation_fails = 16
L2_cache_bank[3]: Access = 2964, Miss = 65, Miss_rate = 0.022, Pending_hits = 83, Reservation_fails = 13
L2_cache_bank[4]: Access = 2964, Miss = 65, Miss_rate = 0.022, Pending_hits = 83, Reservation_fails = 6
L2_cache_bank[5]: Access = 2964, Miss = 65, Miss_rate = 0.022, Pending_hits = 78, Reservation_fails = 11
L2_cache_bank[6]: Access = 2964, Miss = 65, Miss_rate = 0.022, Pending_hits = 79, Reservation_fails = 4
L2_cache_bank[7]: Access = 2964, Miss = 65, Miss_rate = 0.022, Pending_hits = 79, Reservation_fails = 13
L2_cache_bank[8]: Access = 2964, Miss = 65, Miss_rate = 0.022, Pending_hits = 71, Reservation_fails = 4
L2_cache_bank[9]: Access = 2944, Miss = 64, Miss_rate = 0.022, Pending_hits = 64, Reservation_fails = 11
L2_cache_bank[10]: Access = 2944, Miss = 64, Miss_rate = 0.022, Pending_hits = 64, Reservation_fails = 11
L2_cache_bank[11]: Access = 2944, Miss = 64, Miss_rate = 0.022, Pending_hits = 64, Reservation_fails = 9
L2_cache_bank[12]: Access = 2944, Miss = 64, Miss_rate = 0.022, Pending_hits = 64, Reservation_fails = 11
L2_cache_bank[13]: Access = 2944, Miss = 64, Miss_rate = 0.022, Pending_hits = 64, Reservation_fails = 10
L2_cache_bank[14]: Access = 2944, Miss = 64, Miss_rate = 0.022, Pending_hits = 64, Reservation_fails = 9
L2_cache_bank[15]: Access = 2944, Miss = 64, Miss_rate = 0.022, Pending_hits = 64, Reservation_fails = 13
L2_total_cache_accesses = 47284
L2_total_cache_misses = 1033
L2_total_cache_miss_rate = 0.0218
L2_total_cache_pending_hits = 1160
L2_total_cache_reservation_fails = 164
L2_total_cache_breakdown:
	L2_cache_stats_breakdown[GLOBAL_ACC_R][HIT] = 15360
	L2_cache_stats_breakdown[GLOBAL_ACC_R][HIT_RESERVED] = 512
	L2_cache_stats_breakdown[GLOBAL_ACC_R][MISS] = 512
	L2_cache_stats_breakdown[GLOBAL_ACC_R][RESERVATION_FAIL] = 0
	L2_cache_stats_breakdown[GLOBAL_ACC_R][SECTOR_MISS] = 0
	L2_cache_stats_breakdown[GLOBAL_ACC_R][MSHR_HIT] = 512
	L2_cache_stats_breakdown[LOCAL_ACC_R][HIT] = 0
	L2_cache_stats_breakdown[LOCAL_ACC_R][HIT_RESERVED] = 0
	L2_cache_stats_breakdown[LOCAL_ACC_R][MISS] = 0
	L2_cache_stats_breakdown[LOCAL_ACC_R][RESERVATION_FAIL] = 0
	L2_cache_stats_breakdown[LOCAL_ACC_R][SECTOR_MISS] = 0
	L2_cache_stats_breakdown[LOCAL_ACC_R][MSHR_HIT] = 0
	L2_cache_stats_breakdown[CONST_ACC_R][HIT] = 0
	L2_cache_stats_breakdown[CONST_ACC_R][HIT_RESERVED] = 0
	L2_cache_stats_breakdown[CONST_ACC_R][MISS] = 0
	L2_cache_stats_breakdown[CONST_ACC_R][RESERVATION_FAIL] = 0
	L2_cache_stats_breakdown[CONST_ACC_R][SECTOR_MISS] = 0
	L2_cache_stats_breakdown[CONST_ACC_R][MSHR_HIT] = 0
	L2_cache_stats_breakdown[TEXTURE_ACC_R][HIT] = 0
	L2_cache_stats_breakdown[TEXTURE_ACC_R][HIT_RESERVED] = 0
	L2_cache_stats_breakdown[TEXTURE_ACC_R][MISS] = 0
	L2_cache_stats_breakdown[TEXTURE_ACC_R][RESERVATION_FAIL] = 0
	L2_cache_stats_breakdown[TEXTURE_ACC_R][SECTOR_MISS] = 0
	L2_cache_stats_breakdown[TEXTURE_ACC_R][MSHR_HIT] = 0
	L2_cache_stats_breakdown[GLOBAL_ACC_W][HIT] = 29698
	L2_cache_stats_breakdown[GLOBAL_ACC_W][HIT_RESERVED] = 510
	L2_cache_stats_breakdown[GLOBAL_ACC_W][MISS] = 512
	L2_cache_stats_breakdown[GLOBAL_ACC_W][RESERVATION_FAIL] = 164
	L2_cache_stats_breakdown[GLOBAL_ACC_W][SECTOR_MISS] = 0
	L2_cache_stats_breakdown[GLOBAL_ACC_W][MSHR_HIT] = 0
	L2_cache_stats_breakdown[LOCAL_ACC_W][HIT] = 0
	L2_cache_stats_breakdown[LOCAL_ACC_W][HIT_RESERVED] = 0
	L2_cache_stats_breakdown[LOCAL_ACC_W][MISS] = 0
	L2_cache_stats_breakdown[LOCAL_ACC_W][RESERVATION_FAIL] = 0
	L2_cache_stats_breakdown[LOCAL_ACC_W][SECTOR_MISS] = 0
	L2_cache_stats_breakdown[LOCAL_ACC_W][MSHR_HIT] = 0
	L2_cache_stats_breakdown[L1_WRBK_ACC][HIT] = 0
	L2_cache_stats_breakdown[L1_WRBK_ACC][HIT_RESERVED] = 0
	L2_cache_stats_breakdown[L1_WRBK_ACC][MISS] = 0
	L2_cache_stats_breakdown[L1_WRBK_ACC][RESERVATION_FAIL] = 0
	L2_cache_stats_breakdown[L1_WRBK_ACC][SECTOR_MISS] = 0
	L2_cache_stats_breakdown[L1_WRBK_ACC][MSHR_HIT] = 0
	L2_cache_stats_breakdown[L2_WRBK_ACC][HIT] = 0
	L2_cache_stats_breakdown[L2_WRBK_ACC][HIT_RESERVED] = 0
	L2_cache_stats_breakdown[L2_WRBK_ACC][MISS] = 0
	L2_cache_stats_breakdown[L2_WRBK_ACC][RESERVATION_FAIL] = 0
	L2_cache_stats_breakdown[L2_WRBK_ACC][SECTOR_MISS] = 0
	L2_cache_stats_breakdown[L2_WRBK_ACC][MSHR_HIT] = 0
	L2_cache_stats_breakdown[INST_ACC_R][HIT] = 33
	L2_cache_stats_breakdown[INST_ACC_R][HIT_RESERVED] = 138
	L2_cache_stats_breakdown[INST_ACC_R][MISS] = 9
	L2_cache_stats_breakdown[INST_ACC_R][RESERVATION_FAIL] = 0
	L2_cache_stats_breakdown[INST_ACC_R][SECTOR_MISS] = 0
	L2_cache_stats_breakdown[INST_ACC_R][MSHR_HIT] = 138
	L2_cache_stats_breakdown[L1_WR_ALLOC_R][HIT] = 0
	L2_cache_stats_breakdown[L1_WR_ALLOC_R][HIT_RESERVED] = 0
	L2_cache_stats_breakdown[L1_WR_ALLOC_R][MISS] = 0
	L2_cache_stats_breakdown[L1_WR_ALLOC_R][RESERVATION_FAIL] = 0
	L2_cache_stats_breakdown[L1_WR_ALLOC_R][SECTOR_MISS] = 0
	L2_cache_stats_breakdown[L1_WR_ALLOC_R][MSHR_HIT] = 0
	L2_cache_stats_breakdown[L2_WR_ALLOC_R][HIT] = 0
	L2_cache_stats_breakdown[L2_WR_ALLOC_R][HIT_RESERVED] = 0
	L2_cache_stats_breakdown[L2_WR_ALLOC_R][MISS] = 0
	L2_cache_stats_breakdown[L2_WR_ALLOC_R][RESERVATION_FAIL] = 0
	L2_cache_stats_breakdown[L2_WR_ALLOC_R][SECTOR_MISS] = 0
	L2_cache_stats_breakdown[L2_WR_ALLOC_R][MSHR_HIT] = 510
	L2_cache_stats_breakdown[GLOBAL_ACC_R][TOTAL_ACCESS] = 16384
	L2_cache_stats_breakdown[GLOBAL_ACC_W][TOTAL_ACCESS] = 30720
	L2_cache_stats_breakdown[INST_ACC_R][TOTAL_ACCESS] = 180
L2_total_cache_reservation_fail_breakdown:
	L2_cache_stats_fail_breakdown[GLOBAL_ACC_W][MISS_QUEUE_FULL] = 164
L2_cache_data_port_util = 0.167
L2_cache_fill_port_util = 0.009

icnt_total_pkts_mem_to_simt=80772
icnt_total_pkts_simt_to_mem=92340
LD_mem_lat_dist  0 0 0 0 0 0 0 0 0 0 0 0 0 0 0 0 0 0 0 0 0 0 0 0 0 0 0
ST_mem_lat_dist  0 0 0 0 0 0 0 0 0 0 0 0 0 0 0 0 0 0 0 0 0 0 0 0 0 0 0
----------------------------Interconnect-DETAILS--------------------------------
Class 0:
Packet latency average = 29.2958
	minimum = 6
	maximum = 433
Network latency average = 18.3483
	minimum = 6
	maximum = 302
Slowest packet = 2443
Flit latency average = 18.3313
	minimum = 6
	maximum = 302
Slowest flit = 34366
Fragmentation average = 0.0902842
	minimum = 0
	maximum = 206
Injected packet rate average = 0.0684928
	minimum = 0 (at node 36)
	maximum = 0.107337 (at node 20)
Accepted packet rate average = 0.0684928
	minimum = 0 (at node 36)
	maximum = 0.107337 (at node 20)
Injected flit rate average = 0.12538
	minimum = 0 (at node 36)
	maximum = 0.184399 (at node 20)
Accepted flit rate average= 0.12538
	minimum = 0 (at node 36)
	maximum = 0.209314 (at node 20)
Injected packet length average = 1.83056
Accepted packet length average = 1.83056
Total in-flight flits = 0 (0 measured)
====== Overall Traffic Statistics ======
====== Traffic class 0 ======
Packet latency average = 29.5976 (16 samples)
	minimum = 6 (16 samples)
	maximum = 391.5 (16 samples)
Network latency average = 18.4971 (16 samples)
	minimum = 6 (16 samples)
	maximum = 285.625 (16 samples)
Flit latency average = 18.3573 (16 samples)
	minimum = 6 (16 samples)
	maximum = 285.5 (16 samples)
Fragmentation average = 0.118516 (16 samples)
	minimum = 0 (16 samples)
	maximum = 206 (16 samples)
Injected packet rate average = 0.0677598 (16 samples)
	minimum = 0 (16 samples)
	maximum = 0.107655 (16 samples)
Accepted packet rate average = 0.0677598 (16 samples)
	minimum = 0 (16 samples)
	maximum = 0.107655 (16 samples)
Injected flit rate average = 0.122768 (16 samples)
	minimum = 0 (16 samples)
	maximum = 0.188411 (16 samples)
Accepted flit rate average = 0.122768 (16 samples)
	minimum = 0 (16 samples)
	maximum = 0.208064 (16 samples)
Injected packet size average = 1.81181 (16 samples)
Accepted packet size average = 1.81181 (16 samples)
Hops average = 1 (16 samples)
----------------------------END-of-Interconnect-DETAILS-------------------------


gpgpu_simulation_time = 0 days, 0 hrs, 0 min, 13 sec (13 sec)
gpgpu_simulation_rate = 695965 (inst/sec)
gpgpu_simulation_rate = 2124 (cycle/sec)
gpgpu_silicon_slowdown = 756591x
GPGPU-Sim: *** simulation thread exiting ***
GPGPU-Sim: *** exit detected ***
