GPGPU-Sim version 4.2.0 (build gpgpu-sim_git-commit-13c67115070dc2f0876254a790d0238073ca364a-modified_590.0) configured with AccelWattch.

----------------------------------------------------------------------------
INFO - If you only care about PTX execution, ignore this message. GPGPU-Sim supports PTX execution in modern CUDA.
If you want to run PTXPLUS (sm_1x SASS) with a modern card configuration - set the envronment variable
$PTXAS_CUDA_INSTALL_PATH to point a CUDA version compabible with your card configurations (i.e. 8+ for PASCAL, 9+ for VOLTA etc..)
For example: "export $PTXAS_CUDA_INSTALL_PATH=/usr/local/cuda-9.1"

The following text describes why:
If you are using PTXPLUS, only sm_1x is supported and it requires that the app and simulator binaries are compiled in CUDA 4.2 or less.
The simulator requires it since CUDA headers desribe struct sizes in the exec which change from gen to gen.
The apps require 4.2 because new versions of CUDA tools have dropped parsing support for generating sm_1x
When running using modern config (i.e. volta) and PTXPLUS with CUDA 4.2, the $PTXAS_CUDA_INSTALL_PATH env variable is required to get proper register usage
(and hence occupancy) using a version of CUDA that knows the register usage on the real card.

----------------------------------------------------------------------------
setup_environment succeeded
Accel-Sim [build accelsim-commit-e02c99dbadefc0b9dc95317100be2a446eec142c_modified_0.0]

        *** GPGPU-Sim Simulator Version 4.2.0  [build gpgpu-sim_git-commit-13c67115070dc2f0876254a790d0238073ca364a_modified_0.0] ***


GPGPU-Sim: Configuration options:

-save_embedded_ptx                      0 # saves ptx files embedded in binary as <n>.ptx
-keep                                   0 # keep intermediate files created by GPGPU-Sim when interfacing with external programs
-gpgpu_ptx_save_converted_ptxplus                    0 # Saved converted ptxplus to a file
-gpgpu_occupancy_sm_number                   60 # The SM number to pass to ptxas when getting register usage for computing GPU occupancy. This parameter is required in the config.
-ptx_opcode_latency_int         4,13,4,5,145 # Opcode latencies for integers <ADD,MAX,MUL,MAD,DIV,SHFL>Default 1,1,19,25,145,32
-ptx_opcode_latency_fp          4,13,4,5,39 # Opcode latencies for single precision floating points <ADD,MAX,MUL,MAD,DIV>Default 1,1,1,1,30
-ptx_opcode_latency_dp         8,19,8,8,330 # Opcode latencies for double precision floating points <ADD,MAX,MUL,MAD,DIV>Default 8,8,8,8,335
-ptx_opcode_latency_sfu                    8 # Opcode latencies for SFU instructionsDefault 8
-ptx_opcode_latency_tesnor                   64 # Opcode latencies for Tensor instructionsDefault 64
-ptx_opcode_initiation_int            1,2,2,2,8 # Opcode initiation intervals for integers <ADD,MAX,MUL,MAD,DIV,SHFL>Default 1,1,4,4,32,4
-ptx_opcode_initiation_fp            1,2,1,1,4 # Opcode initiation intervals for single precision floating points <ADD,MAX,MUL,MAD,DIV>Default 1,1,1,1,5
-ptx_opcode_initiation_dp          1,2,1,1,130 # Opcode initiation intervals for double precision floating points <ADD,MAX,MUL,MAD,DIV>Default 8,8,8,8,130
-ptx_opcode_initiation_sfu                    8 # Opcode initiation intervals for sfu instructionsDefault 8
-ptx_opcode_initiation_tensor                   64 # Opcode initiation intervals for tensor instructionsDefault 64
-cdp_latency         7200,8000,100,12000,1600 # CDP API latency <cudaStreamCreateWithFlags, cudaGetParameterBufferV2_init_perWarp, cudaGetParameterBufferV2_perKernel, cudaLaunchDeviceV2_init_perWarp, cudaLaunchDevicV2_perKernel>Default 7200,8000,100,12000,1600
-network_mode                           1 # Interconnection network mode
-inter_config_file   config_fermi_islip.icnt # Interconnection network config file
-icnt_in_buffer_limit                   64 # in_buffer_limit
-icnt_out_buffer_limit                   64 # out_buffer_limit
-icnt_subnets                           2 # subnets
-icnt_arbiter_algo                      1 # arbiter_algo
-icnt_verbose                           0 # inct_verbose
-icnt_grant_cycles                      1 # grant_cycles
-gpgpu_ptx_use_cuobjdump                    1 # Use cuobjdump to extract ptx and sass from binaries
-gpgpu_experimental_lib_support                    0 # Try to extract code from cuda libraries [Broken because of unknown cudaGetExportTable]
-checkpoint_option                      0 #  checkpointing flag (0 = no checkpoint)
-checkpoint_kernel                      1 #  checkpointing during execution of which kernel (1- 1st kernel)
-checkpoint_CTA                         0 #  checkpointing after # of CTA (< less than total CTA)
-resume_option                          0 #  resume flag (0 = no resume)
-resume_kernel                          0 #  Resume from which kernel (1= 1st kernel)
-resume_CTA                             0 #  resume from which CTA 
-checkpoint_CTA_t                       0 #  resume from which CTA 
-checkpoint_insn_Y                      0 #  resume from which CTA 
-gpgpu_ptx_convert_to_ptxplus                    0 # Convert SASS (native ISA) to ptxplus and run ptxplus
-gpgpu_ptx_force_max_capability                   60 # Force maximum compute capability
-gpgpu_ptx_inst_debug_to_file                    0 # Dump executed instructions' debug information to file
-gpgpu_ptx_inst_debug_file       inst_debug.txt # Executed instructions' debug output file
-gpgpu_ptx_inst_debug_thread_uid                    1 # Thread UID for executed instructions' debug output
-gpgpu_simd_model                       1 # 1 = post-dominator
-gpgpu_shader_core_pipeline              2048:32 # shader core pipeline config, i.e., {<nthread>:<warpsize>}
-gpgpu_tex_cache:l1  N:16:128:24,L:R:m:N:L,F:128:4,128:2 # per-shader L1 texture cache  (READ-ONLY) config  {<nsets>:<bsize>:<assoc>,<rep>:<wr>:<alloc>:<wr_alloc>,<mshr>:<N>:<merge>,<mq>:<rf>}
-gpgpu_const_cache:l1 N:128:64:2,L:R:f:N:L,A:2:64,4 # per-shader L1 constant memory cache  (READ-ONLY) config  {<nsets>:<bsize>:<assoc>,<rep>:<wr>:<alloc>:<wr_alloc>,<mshr>:<N>:<merge>,<mq>} 
-gpgpu_cache:il1     N:8:128:4,L:R:f:N:L,A:2:48,4 # shader L1 instruction cache config  {<nsets>:<bsize>:<assoc>,<rep>:<wr>:<alloc>:<wr_alloc>,<mshr>:<N>:<merge>,<mq>} 
-gpgpu_cache:dl1     N:64:128:6,L:L:m:N:H,A:128:8,8 # per-shader L1 data cache config  {<nsets>:<bsize>:<assoc>,<rep>:<wr>:<alloc>:<wr_alloc>,<mshr>:<N>:<merge>,<mq> | none}
-gpgpu_l1_cache_write_ratio                    0 # L1D write ratio
-gpgpu_l1_banks                         1 # The number of L1 cache banks
-gpgpu_l1_banks_byte_interleaving                   32 # l1 banks byte interleaving granularity
-gpgpu_l1_banks_hashing_function                    0 # l1 banks hashing function
-gpgpu_l1_latency                       1 # L1 Hit Latency
-gpgpu_smem_latency                     3 # smem Latency
-gpgpu_cache:dl1PrefL1                 none # per-shader L1 data cache config  {<nsets>:<bsize>:<assoc>,<rep>:<wr>:<alloc>:<wr_alloc>,<mshr>:<N>:<merge>,<mq> | none}
-gpgpu_cache:dl1PrefShared                 none # per-shader L1 data cache config  {<nsets>:<bsize>:<assoc>,<rep>:<wr>:<alloc>:<wr_alloc>,<mshr>:<N>:<merge>,<mq> | none}
-gpgpu_gmem_skip_L1D                    1 # global memory access skip L1D cache (implements -Xptxas -dlcm=cg, default=no skip)
-gpgpu_perfect_mem                      0 # enable perfect memory mode (no cache miss)
-n_regfile_gating_group                    4 # group of lanes that should be read/written together)
-gpgpu_clock_gated_reg_file                    0 # enable clock gated reg file for power calculations
-gpgpu_clock_gated_lanes                    0 # enable clock gated lanes for power calculations
-gpgpu_shader_registers                65536 # Number of registers per shader core. Limits number of concurrent CTAs. (default 8192)
-gpgpu_registers_per_block                 8192 # Maximum number of registers per CTA. (default 8192)
-gpgpu_ignore_resources_limitation                    0 # gpgpu_ignore_resources_limitation (default 0)
-gpgpu_shader_cta                      32 # Maximum number of concurrent CTAs in shader (default 32)
-gpgpu_num_cta_barriers                   16 # Maximum number of named barriers per CTA (default 16)
-gpgpu_n_clusters                      20 # number of processing clusters
-gpgpu_n_cores_per_cluster                    1 # number of simd cores per cluster
-gpgpu_n_cluster_ejection_buffer_size                    8 # number of packets in ejection buffer
-gpgpu_n_ldst_response_buffer_size                    2 # number of response packets in ld/st unit ejection buffer
-gpgpu_shmem_per_block                49152 # Size of shared memory per thread block or CTA (default 48kB)
-gpgpu_shmem_size                   98304 # Size of shared memory per shader core (default 16kB)
-gpgpu_shmem_option                     0 # Option list of shared memory sizes
-gpgpu_unified_l1d_size                    0 # Size of unified data cache(L1D + shared memory) in KB
-gpgpu_adaptive_cache_config                    0 # adaptive_cache_config
-gpgpu_shmem_sizeDefault                16384 # Size of shared memory per shader core (default 16kB)
-gpgpu_shmem_size_PrefL1                16384 # Size of shared memory per shader core (default 16kB)
-gpgpu_shmem_size_PrefShared                16384 # Size of shared memory per shader core (default 16kB)
-gpgpu_shmem_num_banks                   32 # Number of banks in the shared memory in each shader core (default 16)
-gpgpu_shmem_limited_broadcast                    0 # Limit shared memory to do one broadcast per cycle (default on)
-gpgpu_shmem_warp_parts                    1 # Number of portions a warp is divided into for shared memory bank conflict check 
-gpgpu_mem_unit_ports                    1 # The number of memory transactions allowed per core cycle
-gpgpu_shmem_warp_parts                    1 # Number of portions a warp is divided into for shared memory bank conflict check 
-gpgpu_warpdistro_shader                   -1 # Specify which shader core to collect the warp size distribution from
-gpgpu_warp_issue_shader                    0 # Specify which shader core to collect the warp issue distribution from
-gpgpu_local_mem_map                    1 # Mapping from local memory space address to simulated GPU physical address space (default = enabled)
-gpgpu_num_reg_banks                   32 # Number of register banks (default = 8)
-gpgpu_reg_bank_use_warp_id                    0 # Use warp ID in mapping registers to banks (default = off)
-gpgpu_sub_core_model                    0 # Sub Core Volta/Pascal model (default = off)
-gpgpu_enable_specialized_operand_collector                    1 # enable_specialized_operand_collector
-gpgpu_operand_collector_num_units_sp                   20 # number of collector units (default = 4)
-gpgpu_operand_collector_num_units_dp                    0 # number of collector units (default = 0)
-gpgpu_operand_collector_num_units_sfu                    4 # number of collector units (default = 4)
-gpgpu_operand_collector_num_units_int                    0 # number of collector units (default = 0)
-gpgpu_operand_collector_num_units_tensor_core                    4 # number of collector units (default = 4)
-gpgpu_operand_collector_num_units_mem                    8 # number of collector units (default = 2)
-gpgpu_operand_collector_num_units_gen                    0 # number of collector units (default = 0)
-gpgpu_operand_collector_num_in_ports_sp                    4 # number of collector unit in ports (default = 1)
-gpgpu_operand_collector_num_in_ports_dp                    0 # number of collector unit in ports (default = 0)
-gpgpu_operand_collector_num_in_ports_sfu                    1 # number of collector unit in ports (default = 1)
-gpgpu_operand_collector_num_in_ports_int                    0 # number of collector unit in ports (default = 0)
-gpgpu_operand_collector_num_in_ports_tensor_core                    1 # number of collector unit in ports (default = 1)
-gpgpu_operand_collector_num_in_ports_mem                    1 # number of collector unit in ports (default = 1)
-gpgpu_operand_collector_num_in_ports_gen                    0 # number of collector unit in ports (default = 0)
-gpgpu_operand_collector_num_out_ports_sp                    4 # number of collector unit in ports (default = 1)
-gpgpu_operand_collector_num_out_ports_dp                    0 # number of collector unit in ports (default = 0)
-gpgpu_operand_collector_num_out_ports_sfu                    1 # number of collector unit in ports (default = 1)
-gpgpu_operand_collector_num_out_ports_int                    0 # number of collector unit in ports (default = 0)
-gpgpu_operand_collector_num_out_ports_tensor_core                    1 # number of collector unit in ports (default = 1)
-gpgpu_operand_collector_num_out_ports_mem                    1 # number of collector unit in ports (default = 1)
-gpgpu_operand_collector_num_out_ports_gen                    0 # number of collector unit in ports (default = 0)
-gpgpu_coalesce_arch                   13 # Coalescing arch (GT200 = 13, Fermi = 20)
-gpgpu_num_sched_per_core                    2 # Number of warp schedulers per core
-gpgpu_max_insn_issue_per_warp                    2 # Max number of instructions that can be issued per warp in one cycle by scheduler (either 1 or 2)
-gpgpu_dual_issue_diff_exec_units                    1 # should dual issue use two different execution unit resources (Default = 1)
-gpgpu_simt_core_sim_order                    1 # Select the simulation order of cores in a cluster (0=Fix, 1=Round-Robin)
-gpgpu_pipeline_widths 4,0,0,1,1,4,0,0,1,1,6 # Pipeline widths ID_OC_SP,ID_OC_DP,ID_OC_INT,ID_OC_SFU,ID_OC_MEM,OC_EX_SP,OC_EX_DP,OC_EX_INT,OC_EX_SFU,OC_EX_MEM,EX_WB,ID_OC_TENSOR_CORE,OC_EX_TENSOR_CORE
-gpgpu_tensor_core_avail                    0 # Tensor Core Available (default=0)
-gpgpu_num_sp_units                     4 # Number of SP units (default=1)
-gpgpu_num_dp_units                     0 # Number of DP units (default=0)
-gpgpu_num_int_units                    0 # Number of INT units (default=0)
-gpgpu_num_sfu_units                    1 # Number of SF units (default=1)
-gpgpu_num_tensor_core_units                    0 # Number of tensor_core units (default=1)
-gpgpu_num_mem_units                    1 # Number if ldst units (default=1) WARNING: not hooked up to anything
-gpgpu_scheduler                      gto # Scheduler configuration: < lrr | gto | two_level_active > If two_level_active:<num_active_warps>:<inner_prioritization>:<outer_prioritization>For complete list of prioritization values see shader.h enum scheduler_prioritization_typeDefault: gto
-gpgpu_concurrent_kernel_sm                    0 # Support concurrent kernels on a SM (default = disabled)
-gpgpu_perfect_inst_const_cache                    0 # perfect inst and const cache mode, so all inst and const hits in the cache(default = disabled)
-gpgpu_inst_fetch_throughput                    1 # the number of fetched intruction per warp each cycle
-gpgpu_reg_file_port_throughput                    1 # the number ports of the register file
-specialized_unit_1         0,4,4,4,4,BRA # specialized unit config {<enabled>,<num_units>:<latency>:<initiation>,<ID_OC_SPEC>:<OC_EX_SPEC>,<NAME>}
-specialized_unit_2         0,4,4,4,4,BRA # specialized unit config {<enabled>,<num_units>:<latency>:<initiation>,<ID_OC_SPEC>:<OC_EX_SPEC>,<NAME>}
-specialized_unit_3         0,4,4,4,4,BRA # specialized unit config {<enabled>,<num_units>:<latency>:<initiation>,<ID_OC_SPEC>:<OC_EX_SPEC>,<NAME>}
-specialized_unit_4         0,4,4,4,4,BRA # specialized unit config {<enabled>,<num_units>:<latency>:<initiation>,<ID_OC_SPEC>:<OC_EX_SPEC>,<NAME>}
-specialized_unit_5         0,4,4,4,4,BRA # specialized unit config {<enabled>,<num_units>:<latency>:<initiation>,<ID_OC_SPEC>:<OC_EX_SPEC>,<NAME>}
-specialized_unit_6         0,4,4,4,4,BRA # specialized unit config {<enabled>,<num_units>:<latency>:<initiation>,<ID_OC_SPEC>:<OC_EX_SPEC>,<NAME>}
-specialized_unit_7         0,4,4,4,4,BRA # specialized unit config {<enabled>,<num_units>:<latency>:<initiation>,<ID_OC_SPEC>:<OC_EX_SPEC>,<NAME>}
-specialized_unit_8         0,4,4,4,4,BRA # specialized unit config {<enabled>,<num_units>:<latency>:<initiation>,<ID_OC_SPEC>:<OC_EX_SPEC>,<NAME>}
-gpgpu_perf_sim_memcpy                    1 # Fill the L2 cache on memcpy
-gpgpu_simple_dram_model                    0 # simple_dram_model with fixed latency and BW
-gpgpu_dram_scheduler                    1 # 0 = fifo, 1 = FR-FCFS (defaul)
-gpgpu_dram_partition_queues              8:8:8:8 # i2$:$2d:d2$:$2i
-l2_ideal                               0 # Use a ideal L2 cache that always hit
-gpgpu_cache:dl2     N:64:128:16,L:B:m:W:L,A:1024:1024,4:0,32 # unified banked L2 data cache config  {<nsets>:<bsize>:<assoc>,<rep>:<wr>:<alloc>:<wr_alloc>,<mshr>:<N>:<merge>,<mq>}
-gpgpu_cache:dl2_texture_only                    0 # L2 cache used for texture only
-gpgpu_n_mem                            8 # number of memory modules (e.g. memory controllers) in gpu
-gpgpu_n_sub_partition_per_mchannel                    2 # number of memory subpartition in each memory module
-gpgpu_n_mem_per_ctrlr                    1 # number of memory chips per memory controller
-gpgpu_memlatency_stat                   14 # track and display latency statistics 0x2 enables MC, 0x4 enables queue logs
-gpgpu_frfcfs_dram_sched_queue_size                   64 # 0 = unlimited (default); # entries per chip
-gpgpu_dram_return_queue_size                  116 # 0 = unlimited (default); # entries per chip
-gpgpu_dram_buswidth                    4 # default = 4 bytes (8 bytes per cycle at DDR)
-gpgpu_dram_burst_length                    8 # Burst length of each DRAM request (default = 4 data bus cycle)
-dram_data_command_freq_ratio                    4 # Frequency ratio between DRAM data bus and command bus (default = 2 times, i.e. DDR)
-gpgpu_dram_timing_opt nbk=16:CCD=2:RRD=6:RCD=12:RAS=28:RP=12:RC=40: CL=12:WL=4:CDLR=5:WR=12:nbkgrp=1:CCDL=0:RTPL=0 # DRAM timing parameters = {nbk:tCCD:tRRD:tRCD:tRAS:tRP:tRC:CL:WL:tCDLR:tWR:nbkgrp:tCCDL:tRTPL}
-gpgpu_l2_rop_latency                  120 # ROP queue latency (default 85)
-dram_latency                         100 # DRAM latency (default 30)
-dram_dual_bus_interface                    0 # dual_bus_interface (default = 0) 
-dram_bnk_indexing_policy                    0 # dram_bnk_indexing_policy (0 = normal indexing, 1 = Xoring with the higher bits) (Default = 0)
-dram_bnkgrp_indexing_policy                    0 # dram_bnkgrp_indexing_policy (0 = take higher bits, 1 = take lower bits) (Default = 0)
-dram_seperate_write_queue_enable                    0 # Seperate_Write_Queue_Enable
-dram_write_queue_size             32:28:16 # Write_Queue_Size
-dram_elimnate_rw_turnaround                    0 # elimnate_rw_turnaround i.e set tWTR and tRTW = 0
-icnt_flit_size                        32 # icnt_flit_size
-gpgpu_mem_addr_mapping dramid@8;00000000.00000000.00000000.00000000.0000RRRR.RRRRRRRR.RBBBCCCC.BCCSSSSS # mapping memory address to dram model {dramid@<start bit>;<memory address map>}
-gpgpu_mem_addr_test                    0 # run sweep test to check address mapping for aliased address
-gpgpu_mem_address_mask                    1 # 0 = old addressing mask, 1 = new addressing mask, 2 = new add. mask + flipped bank sel and chip sel bits
-gpgpu_memory_partition_indexing                    0 # 0 = no indexing, 1 = bitwise xoring, 2 = IPoly, 3 = custom indexing
-accelwattch_xml_file accelwattch_sass_sim.xml # AccelWattch XML file
-power_simulation_enabled                    0 # Turn on power simulator (1=On, 0=Off)
-power_per_cycle_dump                    0 # Dump detailed power output each cycle
-hw_perf_file_name            hw_perf.csv # Hardware Performance Statistics file
-hw_perf_bench_name                       # Kernel Name in Hardware Performance Statistics file
-power_simulation_mode                    0 # Switch performance counter input for power simulation (0=Sim, 1=HW, 2=HW-Sim Hybrid)
-dvfs_enabled                           0 # Turn on DVFS for power model
-aggregate_power_stats                    0 # Accumulate power across all kernels
-accelwattch_hybrid_perfsim_L1_RH                    0 # Get L1 Read Hits for Accelwattch-Hybrid from Accel-Sim
-accelwattch_hybrid_perfsim_L1_RM                    0 # Get L1 Read Misses for Accelwattch-Hybrid from Accel-Sim
-accelwattch_hybrid_perfsim_L1_WH                    0 # Get L1 Write Hits for Accelwattch-Hybrid from Accel-Sim
-accelwattch_hybrid_perfsim_L1_WM                    0 # Get L1 Write Misses for Accelwattch-Hybrid from Accel-Sim
-accelwattch_hybrid_perfsim_L2_RH                    0 # Get L2 Read Hits for Accelwattch-Hybrid from Accel-Sim
-accelwattch_hybrid_perfsim_L2_RM                    0 # Get L2 Read Misses for Accelwattch-Hybrid from Accel-Sim
-accelwattch_hybrid_perfsim_L2_WH                    0 # Get L2 Write Hits for Accelwattch-Hybrid from Accel-Sim
-accelwattch_hybrid_perfsim_L2_WM                    0 # Get L2 Write Misses for Accelwattch-Hybrid from Accel-Sim
-accelwattch_hybrid_perfsim_CC_ACC                    0 # Get Constant Cache Acesses for Accelwattch-Hybrid from Accel-Sim
-accelwattch_hybrid_perfsim_SHARED_ACC                    0 # Get Shared Memory Acesses for Accelwattch-Hybrid from Accel-Sim
-accelwattch_hybrid_perfsim_DRAM_RD                    0 # Get DRAM Reads for Accelwattch-Hybrid from Accel-Sim
-accelwattch_hybrid_perfsim_DRAM_WR                    0 # Get DRAM Writes for Accelwattch-Hybrid from Accel-Sim
-accelwattch_hybrid_perfsim_NOC                    0 # Get Interconnect Acesses for Accelwattch-Hybrid from Accel-Sim
-accelwattch_hybrid_perfsim_PIPE_DUTY                    0 # Get Pipeline Duty Cycle Acesses for Accelwattch-Hybrid from Accel-Sim
-accelwattch_hybrid_perfsim_NUM_SM_IDLE                    0 # Get Number of Idle SMs for Accelwattch-Hybrid from Accel-Sim
-accelwattch_hybrid_perfsim_CYCLES                    0 # Get Executed Cycles for Accelwattch-Hybrid from Accel-Sim
-accelwattch_hybrid_perfsim_VOLTAGE                    0 # Get Chip Voltage for Accelwattch-Hybrid from Accel-Sim
-power_trace_enabled                    0 # produce a file for the power trace (1=On, 0=Off)
-power_trace_zlevel                     6 # Compression level of the power trace output log (0=no comp, 9=highest)
-steady_power_levels_enabled                    0 # produce a file for the steady power levels (1=On, 0=Off)
-steady_state_definition                  8:4 # allowed deviation:number of samples
-gpgpu_max_cycle                        0 # terminates gpu simulation early (0 = no limit)
-gpgpu_max_insn                         0 # terminates gpu simulation early (0 = no limit)
-gpgpu_max_cta                          0 # terminates gpu simulation early (0 = no limit)
-gpgpu_max_completed_cta                    0 # terminates gpu simulation early (0 = no limit)
-gpgpu_runtime_stat                   500 # display runtime statistics such as dram utilization {<freq>:<flag>}
-liveness_message_freq                    1 # Minimum number of seconds between simulation liveness messages (0 = always print)
-gpgpu_compute_capability_major                    7 # Major compute capability version number
-gpgpu_compute_capability_minor                    0 # Minor compute capability version number
-gpgpu_flush_l1_cache                    0 # Flush L1 cache at the end of each kernel call
-gpgpu_flush_l2_cache                    0 # Flush L2 cache at the end of each kernel call
-gpgpu_deadlock_detect                    1 # Stop the simulation at deadlock (1=on (default), 0=off)
-gpgpu_ptx_instruction_classification                    0 # if enabled will classify ptx instruction types per kernel (Max 255 kernels now)
-gpgpu_ptx_sim_mode                     0 # Select between Performance (default) or Functional simulation (1)
-gpgpu_clock_domains 1607.0:2962.0:1607.0:2750.0 # Clock Domain Frequencies in MhZ {<Core Clock>:<ICNT Clock>:<L2 Clock>:<DRAM Clock>}
-gpgpu_max_concurrent_kernel                   32 # maximum kernels that can run concurrently on GPU, set this value according to max resident grids for your compute capability
-gpgpu_cflog_interval                    0 # Interval between each snapshot in control flow logger
-visualizer_enabled                     0 # Turn on visualizer output (1=On, 0=Off)
-visualizer_outputfile                 NULL # Specifies the output log file for visualizer
-visualizer_zlevel                      6 # Compression level of the visualizer output log (0=no comp, 9=highest)
-gpgpu_stack_size_limit                 1024 # GPU thread stack size
-gpgpu_heap_size_limit              8388608 # GPU malloc heap size 
-gpgpu_runtime_sync_depth_limit                    2 # GPU device runtime synchronize depth
-gpgpu_runtime_pending_launch_count_limit                 2048 # GPU device runtime pending launch count
-trace_enabled                          0 # Turn on traces
-trace_components                    none # comma seperated list of traces to enable. Complete list found in trace_streams.tup. Default none
-trace_sampling_core                    0 # The core which is printed using CORE_DPRINTF. Default 0
-trace_sampling_memory_partition                   -1 # The memory partition which is printed using MEMPART_DPRINTF. Default -1 (i.e. all)
-enable_ptx_file_line_stats                    1 # Turn on PTX source line statistic profiling. (1 = On)
-ptx_line_stats_filename gpgpu_inst_stats.txt # Output file for PTX source line statistics.
-gpgpu_kernel_launch_latency                    0 # Kernel launch latency in cycles. Default: 0
-gpgpu_cdp_enabled                      0 # Turn on CDP
-gpgpu_TB_launch_latency                    0 # thread block launch latency in cycles. Default: 0
-trace               /benchrun/accelsim-sass/babelstream/sm6_gtx1080/input-arraysize-102400-numtimes-1/results/traces/kernelslist.g # traces kernel filetraces kernel file directory
-trace_opcode_latency_initiation_int                  4,1 # Opcode latencies and initiation for integers in trace driven mode <latency,initiation>
-trace_opcode_latency_initiation_sp                  4,1 # Opcode latencies and initiation for sp in trace driven mode <latency,initiation>
-trace_opcode_latency_initiation_dp                  4,1 # Opcode latencies and initiation for dp in trace driven mode <latency,initiation>
-trace_opcode_latency_initiation_sfu                  4,1 # Opcode latencies and initiation for sfu in trace driven mode <latency,initiation>
-trace_opcode_latency_initiation_tensor                  4,1 # Opcode latencies and initiation for tensor in trace driven mode <latency,initiation>
-trace_opcode_latency_initiation_spec_op_1                  4,4 # specialized unit config <latency,initiation>
-trace_opcode_latency_initiation_spec_op_2                  4,4 # specialized unit config <latency,initiation>
-trace_opcode_latency_initiation_spec_op_3                  4,4 # specialized unit config <latency,initiation>
-trace_opcode_latency_initiation_spec_op_4                  4,4 # specialized unit config <latency,initiation>
-trace_opcode_latency_initiation_spec_op_5                  4,4 # specialized unit config <latency,initiation>
-trace_opcode_latency_initiation_spec_op_6                  4,4 # specialized unit config <latency,initiation>
-trace_opcode_latency_initiation_spec_op_7                  4,4 # specialized unit config <latency,initiation>
-trace_opcode_latency_initiation_spec_op_8                  4,4 # specialized unit config <latency,initiation>
DRAM Timing Options:
nbk                                    16 # number of banks
CCD                                     2 # column to column delay
RRD                                     6 # minimal delay between activation of rows in different banks
RCD                                    12 # row to column delay
RAS                                    28 # time needed to activate row
RP                                     12 # time needed to precharge (deactivate) row
RC                                     40 # row cycle time
CDLR                                    5 # switching from write to read (changes tWTR)
WR                                     12 # last data-in to row precharge
CL                                     12 # CAS latency
WL                                      4 # Write latency
nbkgrp                                  1 # number of bank groups
CCDL                                    0 # column to column delay between accesses to different bank groups
RTPL                                    0 # read to precharge delay between accesses to different bank groups
Total number of memory sub partition = 16
addr_dec_mask[CHIP]  = 0000000000000700 	high:11 low:8
addr_dec_mask[BK]    = 0000000000038080 	high:18 low:7
addr_dec_mask[ROW]   = 000000007ffc0000 	high:31 low:18
addr_dec_mask[COL]   = 000000000000787f 	high:15 low:0
addr_dec_mask[BURST] = 000000000000001f 	high:5 low:0
sub_partition_id_mask = 0000000000000080
GPGPU-Sim uArch: clock freqs: 1607000000.000000:2962000000.000000:1607000000.000000:2750000000.000000
GPGPU-Sim uArch: clock periods: 0.00000000062227753578:0.00000000033760972316:0.00000000062227753578:0.00000000036363636364
*** Initializing Memory Statistics ***
GPGPU-Sim uArch: interconnect node map (shaderID+MemID to icntID)
GPGPU-Sim uArch: Memory nodes ID start from index: 20
GPGPU-Sim uArch:    0   1   2   3   4   5   6
GPGPU-Sim uArch:    7   8   9  10  11  12  13
GPGPU-Sim uArch:   14  15  16  17  18  19  20
GPGPU-Sim uArch:   21  22  23  24  25  26  27
GPGPU-Sim uArch:   28  29  30  31  32  33  34
GPGPU-Sim uArch:   35  36  37  38  39  40  41
GPGPU-Sim uArch:   42  43  44  45  46  47  48
GPGPU-Sim uArch:   49
GPGPU-Sim uArch: interconnect node reverse map (icntID to shaderID+MemID)
GPGPU-Sim uArch: Memory nodes start from ID: 20
GPGPU-Sim uArch:    0   1   2   3   4   5   6
GPGPU-Sim uArch:    7   8   9  10  11  12  13
GPGPU-Sim uArch:   14  15  16  17  18  19  20
GPGPU-Sim uArch:   21  22  23  24  25  26  27
GPGPU-Sim uArch:   28  29  30  31  32  33  34
GPGPU-Sim uArch:   35  36  37  38  39  40  41
GPGPU-Sim uArch:   42  43  44  45  46  47  48
GPGPU-Sim uArch:   49
GPGPU-Sim uArch: performance model initialization complete.
Processing kernel /benchrun/accelsim-sass/babelstream/sm6_gtx1080/input-arraysize-102400-numtimes-1/results/traces/kernel-1.traceg
-kernel name = _Z11init_kernelIdEvPT_S1_S1_S0_S0_S0_
-kernel id = 1
-grid dim = (100,1,1)
-block dim = (1024,1,1)
-shmem = 0
-nregs = 14
-binary version = 61
-cuda stream id = 0
-shmem base_addr = 0x00007f613f000000
-local mem base_addr = 0x00007f613d000000
-nvbit version = 1.5.5
-accelsim tracer version = 3
Header info loaded for kernel command : /benchrun/accelsim-sass/babelstream/sm6_gtx1080/input-arraysize-102400-numtimes-1/results/traces/kernel-1.traceg
launching kernel name: _Z11init_kernelIdEvPT_S1_S1_S0_S0_S0_ uid: 1
GPGPU-Sim uArch: Shader 0 bind to kernel 1 '_Z11init_kernelIdEvPT_S1_S1_S0_S0_S0_'
GPGPU-Sim uArch: CTA/core = 2, limited by: threads
thread block = 0,0,0
GPGPU-Sim uArch: Shader 1 bind to kernel 1 '_Z11init_kernelIdEvPT_S1_S1_S0_S0_S0_'
thread block = 1,0,0
GPGPU-Sim uArch: Shader 2 bind to kernel 1 '_Z11init_kernelIdEvPT_S1_S1_S0_S0_S0_'
thread block = 2,0,0
GPGPU-Sim uArch: Shader 3 bind to kernel 1 '_Z11init_kernelIdEvPT_S1_S1_S0_S0_S0_'
thread block = 3,0,0
GPGPU-Sim uArch: Shader 4 bind to kernel 1 '_Z11init_kernelIdEvPT_S1_S1_S0_S0_S0_'
thread block = 4,0,0
GPGPU-Sim uArch: Shader 5 bind to kernel 1 '_Z11init_kernelIdEvPT_S1_S1_S0_S0_S0_'
thread block = 5,0,0
GPGPU-Sim uArch: Shader 6 bind to kernel 1 '_Z11init_kernelIdEvPT_S1_S1_S0_S0_S0_'
thread block = 6,0,0
GPGPU-Sim uArch: Shader 7 bind to kernel 1 '_Z11init_kernelIdEvPT_S1_S1_S0_S0_S0_'
thread block = 7,0,0
GPGPU-Sim uArch: Shader 8 bind to kernel 1 '_Z11init_kernelIdEvPT_S1_S1_S0_S0_S0_'
thread block = 8,0,0
GPGPU-Sim uArch: Shader 9 bind to kernel 1 '_Z11init_kernelIdEvPT_S1_S1_S0_S0_S0_'
thread block = 9,0,0
GPGPU-Sim uArch: Shader 10 bind to kernel 1 '_Z11init_kernelIdEvPT_S1_S1_S0_S0_S0_'
thread block = 10,0,0
GPGPU-Sim uArch: Shader 11 bind to kernel 1 '_Z11init_kernelIdEvPT_S1_S1_S0_S0_S0_'
thread block = 11,0,0
GPGPU-Sim uArch: Shader 12 bind to kernel 1 '_Z11init_kernelIdEvPT_S1_S1_S0_S0_S0_'
thread block = 12,0,0
GPGPU-Sim uArch: Shader 13 bind to kernel 1 '_Z11init_kernelIdEvPT_S1_S1_S0_S0_S0_'
thread block = 13,0,0
GPGPU-Sim uArch: Shader 14 bind to kernel 1 '_Z11init_kernelIdEvPT_S1_S1_S0_S0_S0_'
thread block = 14,0,0
GPGPU-Sim uArch: Shader 15 bind to kernel 1 '_Z11init_kernelIdEvPT_S1_S1_S0_S0_S0_'
thread block = 15,0,0
GPGPU-Sim uArch: Shader 16 bind to kernel 1 '_Z11init_kernelIdEvPT_S1_S1_S0_S0_S0_'
thread block = 16,0,0
GPGPU-Sim uArch: Shader 17 bind to kernel 1 '_Z11init_kernelIdEvPT_S1_S1_S0_S0_S0_'
thread block = 17,0,0
GPGPU-Sim uArch: Shader 18 bind to kernel 1 '_Z11init_kernelIdEvPT_S1_S1_S0_S0_S0_'
thread block = 18,0,0
GPGPU-Sim uArch: Shader 19 bind to kernel 1 '_Z11init_kernelIdEvPT_S1_S1_S0_S0_S0_'
thread block = 19,0,0
thread block = 20,0,0
thread block = 21,0,0
thread block = 22,0,0
thread block = 23,0,0
thread block = 24,0,0
thread block = 25,0,0
thread block = 26,0,0
thread block = 27,0,0
thread block = 28,0,0
thread block = 29,0,0
thread block = 30,0,0
thread block = 31,0,0
thread block = 32,0,0
thread block = 33,0,0
thread block = 34,0,0
thread block = 35,0,0
thread block = 36,0,0
thread block = 37,0,0
thread block = 38,0,0
thread block = 39,0,0
thread block = 40,0,0
thread block = 41,0,0
thread block = 42,0,0
thread block = 43,0,0
thread block = 44,0,0
thread block = 45,0,0
thread block = 46,0,0
thread block = 47,0,0
thread block = 48,0,0
thread block = 49,0,0
thread block = 50,0,0
thread block = 51,0,0
thread block = 52,0,0
thread block = 53,0,0
thread block = 54,0,0
thread block = 55,0,0
thread block = 56,0,0
thread block = 57,0,0
thread block = 58,0,0
thread block = 59,0,0
thread block = 60,0,0
thread block = 61,0,0
thread block = 62,0,0
thread block = 63,0,0
thread block = 64,0,0
thread block = 65,0,0
thread block = 66,0,0
thread block = 67,0,0
thread block = 68,0,0
thread block = 69,0,0
thread block = 70,0,0
thread block = 71,0,0
thread block = 72,0,0
thread block = 73,0,0
thread block = 74,0,0
thread block = 75,0,0
thread block = 76,0,0
thread block = 77,0,0
thread block = 78,0,0
thread block = 79,0,0
thread block = 80,0,0
thread block = 81,0,0
thread block = 82,0,0
thread block = 83,0,0
thread block = 84,0,0
thread block = 85,0,0
thread block = 86,0,0
thread block = 87,0,0
thread block = 88,0,0
thread block = 89,0,0
thread block = 90,0,0
thread block = 91,0,0
thread block = 92,0,0
thread block = 93,0,0
thread block = 94,0,0
thread block = 95,0,0
thread block = 96,0,0
thread block = 97,0,0
thread block = 98,0,0
thread block = 99,0,0
Destroy streams for kernel 1: size 0
kernel_name = _Z11init_kernelIdEvPT_S1_S1_S0_S0_S0_ 
kernel_launch_uid = 1 
gpu_sim_cycle = 26652
gpu_sim_insn = 2457600
gpu_ipc =      92.2107
gpu_tot_sim_cycle = 26652
gpu_tot_sim_insn = 2457600
gpu_tot_ipc =      92.2107
gpu_tot_issued_cta = 100
gpu_occupancy = 64.2476% 
gpu_tot_occupancy = 64.2476% 
max_total_param_size = 0
gpu_stall_dramfull = 140211
gpu_stall_icnt2sh    = 168
partiton_level_parallism =       0.7219
partiton_level_parallism_total  =       0.7219
partiton_level_parallism_util =       2.9316
partiton_level_parallism_util_total  =       2.9316
L2_BW  =      68.4243 GB/Sec
L2_BW_total  =      68.4243 GB/Sec
gpu_total_sim_rate=175542

========= Core cache stats =========
L1I_cache:
	L1I_total_cache_accesses = 38400
	L1I_total_cache_misses = 1920
	L1I_total_cache_miss_rate = 0.0500
	L1I_total_cache_pending_hits = 0
	L1I_total_cache_reservation_fails = 8585
L1D_cache:
	L1D_cache_core[0]: Access = 0, Miss = 0, Miss_rate = -nan, Pending_hits = 0, Reservation_fails = 0
	L1D_cache_core[1]: Access = 0, Miss = 0, Miss_rate = -nan, Pending_hits = 0, Reservation_fails = 0
	L1D_cache_core[2]: Access = 0, Miss = 0, Miss_rate = -nan, Pending_hits = 0, Reservation_fails = 0
	L1D_cache_core[3]: Access = 0, Miss = 0, Miss_rate = -nan, Pending_hits = 0, Reservation_fails = 0
	L1D_cache_core[4]: Access = 0, Miss = 0, Miss_rate = -nan, Pending_hits = 0, Reservation_fails = 0
	L1D_cache_core[5]: Access = 0, Miss = 0, Miss_rate = -nan, Pending_hits = 0, Reservation_fails = 0
	L1D_cache_core[6]: Access = 0, Miss = 0, Miss_rate = -nan, Pending_hits = 0, Reservation_fails = 0
	L1D_cache_core[7]: Access = 0, Miss = 0, Miss_rate = -nan, Pending_hits = 0, Reservation_fails = 0
	L1D_cache_core[8]: Access = 0, Miss = 0, Miss_rate = -nan, Pending_hits = 0, Reservation_fails = 0
	L1D_cache_core[9]: Access = 0, Miss = 0, Miss_rate = -nan, Pending_hits = 0, Reservation_fails = 0
	L1D_cache_core[10]: Access = 0, Miss = 0, Miss_rate = -nan, Pending_hits = 0, Reservation_fails = 0
	L1D_cache_core[11]: Access = 0, Miss = 0, Miss_rate = -nan, Pending_hits = 0, Reservation_fails = 0
	L1D_cache_core[12]: Access = 0, Miss = 0, Miss_rate = -nan, Pending_hits = 0, Reservation_fails = 0
	L1D_cache_core[13]: Access = 0, Miss = 0, Miss_rate = -nan, Pending_hits = 0, Reservation_fails = 0
	L1D_cache_core[14]: Access = 0, Miss = 0, Miss_rate = -nan, Pending_hits = 0, Reservation_fails = 0
	L1D_cache_core[15]: Access = 0, Miss = 0, Miss_rate = -nan, Pending_hits = 0, Reservation_fails = 0
	L1D_cache_core[16]: Access = 0, Miss = 0, Miss_rate = -nan, Pending_hits = 0, Reservation_fails = 0
	L1D_cache_core[17]: Access = 0, Miss = 0, Miss_rate = -nan, Pending_hits = 0, Reservation_fails = 0
	L1D_cache_core[18]: Access = 0, Miss = 0, Miss_rate = -nan, Pending_hits = 0, Reservation_fails = 0
	L1D_cache_core[19]: Access = 0, Miss = 0, Miss_rate = -nan, Pending_hits = 0, Reservation_fails = 0
	L1D_total_cache_accesses = 0
	L1D_total_cache_misses = 0
	L1D_total_cache_pending_hits = 0
	L1D_total_cache_reservation_fails = 0
	L1D_cache_data_port_util = 0.000
	L1D_cache_fill_port_util = 0.000
L1C_cache:
	L1C_total_cache_accesses = 0
	L1C_total_cache_misses = 0
	L1C_total_cache_pending_hits = 0
	L1C_total_cache_reservation_fails = 0
L1T_cache:
	L1T_total_cache_accesses = 0
	L1T_total_cache_misses = 0
	L1T_total_cache_pending_hits = 0
	L1T_total_cache_reservation_fails = 0

Total_core_cache_stats:
	Total_core_cache_stats_breakdown[GLOBAL_ACC_R][HIT] = 0
	Total_core_cache_stats_breakdown[GLOBAL_ACC_R][HIT_RESERVED] = 0
	Total_core_cache_stats_breakdown[GLOBAL_ACC_R][MISS] = 0
	Total_core_cache_stats_breakdown[GLOBAL_ACC_R][RESERVATION_FAIL] = 0
	Total_core_cache_stats_breakdown[GLOBAL_ACC_R][SECTOR_MISS] = 0
	Total_core_cache_stats_breakdown[GLOBAL_ACC_R][MSHR_HIT] = 0
	Total_core_cache_stats_breakdown[LOCAL_ACC_R][HIT] = 0
	Total_core_cache_stats_breakdown[LOCAL_ACC_R][HIT_RESERVED] = 0
	Total_core_cache_stats_breakdown[LOCAL_ACC_R][MISS] = 0
	Total_core_cache_stats_breakdown[LOCAL_ACC_R][RESERVATION_FAIL] = 0
	Total_core_cache_stats_breakdown[LOCAL_ACC_R][SECTOR_MISS] = 0
	Total_core_cache_stats_breakdown[LOCAL_ACC_R][MSHR_HIT] = 0
	Total_core_cache_stats_breakdown[CONST_ACC_R][HIT] = 0
	Total_core_cache_stats_breakdown[CONST_ACC_R][HIT_RESERVED] = 0
	Total_core_cache_stats_breakdown[CONST_ACC_R][MISS] = 0
	Total_core_cache_stats_breakdown[CONST_ACC_R][RESERVATION_FAIL] = 0
	Total_core_cache_stats_breakdown[CONST_ACC_R][SECTOR_MISS] = 0
	Total_core_cache_stats_breakdown[CONST_ACC_R][MSHR_HIT] = 0
	Total_core_cache_stats_breakdown[TEXTURE_ACC_R][HIT] = 0
	Total_core_cache_stats_breakdown[TEXTURE_ACC_R][HIT_RESERVED] = 0
	Total_core_cache_stats_breakdown[TEXTURE_ACC_R][MISS] = 0
	Total_core_cache_stats_breakdown[TEXTURE_ACC_R][RESERVATION_FAIL] = 0
	Total_core_cache_stats_breakdown[TEXTURE_ACC_R][SECTOR_MISS] = 0
	Total_core_cache_stats_breakdown[TEXTURE_ACC_R][MSHR_HIT] = 0
	Total_core_cache_stats_breakdown[GLOBAL_ACC_W][HIT] = 0
	Total_core_cache_stats_breakdown[GLOBAL_ACC_W][HIT_RESERVED] = 0
	Total_core_cache_stats_breakdown[GLOBAL_ACC_W][MISS] = 0
	Total_core_cache_stats_breakdown[GLOBAL_ACC_W][RESERVATION_FAIL] = 0
	Total_core_cache_stats_breakdown[GLOBAL_ACC_W][SECTOR_MISS] = 0
	Total_core_cache_stats_breakdown[GLOBAL_ACC_W][MSHR_HIT] = 0
	Total_core_cache_stats_breakdown[LOCAL_ACC_W][HIT] = 0
	Total_core_cache_stats_breakdown[LOCAL_ACC_W][HIT_RESERVED] = 0
	Total_core_cache_stats_breakdown[LOCAL_ACC_W][MISS] = 0
	Total_core_cache_stats_breakdown[LOCAL_ACC_W][RESERVATION_FAIL] = 0
	Total_core_cache_stats_breakdown[LOCAL_ACC_W][SECTOR_MISS] = 0
	Total_core_cache_stats_breakdown[LOCAL_ACC_W][MSHR_HIT] = 0
	Total_core_cache_stats_breakdown[L1_WRBK_ACC][HIT] = 0
	Total_core_cache_stats_breakdown[L1_WRBK_ACC][HIT_RESERVED] = 0
	Total_core_cache_stats_breakdown[L1_WRBK_ACC][MISS] = 0
	Total_core_cache_stats_breakdown[L1_WRBK_ACC][RESERVATION_FAIL] = 0
	Total_core_cache_stats_breakdown[L1_WRBK_ACC][SECTOR_MISS] = 0
	Total_core_cache_stats_breakdown[L1_WRBK_ACC][MSHR_HIT] = 0
	Total_core_cache_stats_breakdown[L2_WRBK_ACC][HIT] = 0
	Total_core_cache_stats_breakdown[L2_WRBK_ACC][HIT_RESERVED] = 0
	Total_core_cache_stats_breakdown[L2_WRBK_ACC][MISS] = 0
	Total_core_cache_stats_breakdown[L2_WRBK_ACC][RESERVATION_FAIL] = 0
	Total_core_cache_stats_breakdown[L2_WRBK_ACC][SECTOR_MISS] = 0
	Total_core_cache_stats_breakdown[L2_WRBK_ACC][MSHR_HIT] = 0
	Total_core_cache_stats_breakdown[INST_ACC_R][HIT] = 36480
	Total_core_cache_stats_breakdown[INST_ACC_R][HIT_RESERVED] = 0
	Total_core_cache_stats_breakdown[INST_ACC_R][MISS] = 1920
	Total_core_cache_stats_breakdown[INST_ACC_R][RESERVATION_FAIL] = 8585
	Total_core_cache_stats_breakdown[INST_ACC_R][SECTOR_MISS] = 0
	Total_core_cache_stats_breakdown[INST_ACC_R][MSHR_HIT] = 1880
	Total_core_cache_stats_breakdown[L1_WR_ALLOC_R][HIT] = 0
	Total_core_cache_stats_breakdown[L1_WR_ALLOC_R][HIT_RESERVED] = 0
	Total_core_cache_stats_breakdown[L1_WR_ALLOC_R][MISS] = 0
	Total_core_cache_stats_breakdown[L1_WR_ALLOC_R][RESERVATION_FAIL] = 0
	Total_core_cache_stats_breakdown[L1_WR_ALLOC_R][SECTOR_MISS] = 0
	Total_core_cache_stats_breakdown[L1_WR_ALLOC_R][MSHR_HIT] = 0
	Total_core_cache_stats_breakdown[L2_WR_ALLOC_R][HIT] = 0
	Total_core_cache_stats_breakdown[L2_WR_ALLOC_R][HIT_RESERVED] = 0
	Total_core_cache_stats_breakdown[L2_WR_ALLOC_R][MISS] = 0
	Total_core_cache_stats_breakdown[L2_WR_ALLOC_R][RESERVATION_FAIL] = 0
	Total_core_cache_stats_breakdown[L2_WR_ALLOC_R][SECTOR_MISS] = 0
	Total_core_cache_stats_breakdown[L2_WR_ALLOC_R][MSHR_HIT] = 0
	Total_core_cache_stats_breakdown[INST_ACC_R][TOTAL_ACCESS] = 38400

Total_core_cache_fail_stats:
	Total_core_cache_fail_stats_breakdown[INST_ACC_R][MSHR_MERGE_ENRTY_FAIL] = 8585
ctas_completed 100, Shader 0 warp_id issue ditsribution:
warp_id:
0, 1, 2, 3, 4, 5, 6, 7, 8, 9, 10, 11, 12, 13, 14, 15, 16, 17, 18, 19, 20, 21, 22, 23, 24, 25, 26, 27, 28, 29, 30, 31, 32, 33, 34, 35, 36, 37, 38, 39, 40, 41, 42, 43, 44, 45, 46, 47, 48, 49, 50, 51, 52, 53, 54, 55, 56, 57, 58, 59, 60, 61, 62, 63, 
distro:
78, 79, 79, 79, 79, 79, 79, 79, 79, 79, 79, 79, 79, 79, 78, 78, 78, 78, 78, 78, 78, 78, 78, 78, 78, 78, 78, 78, 78, 78, 78, 78, 52, 52, 52, 52, 52, 52, 52, 52, 52, 52, 52, 52, 52, 52, 52, 52, 52, 52, 52, 52, 52, 52, 52, 52, 52, 52, 52, 52, 52, 52, 52, 52, 
gpgpu_n_tot_thrd_icount = 2457600
gpgpu_n_tot_w_icount = 76800
gpgpu_n_stall_shd_mem = 459089
gpgpu_n_mem_read_local = 0
gpgpu_n_mem_write_local = 0
gpgpu_n_mem_read_global = 0
gpgpu_n_mem_write_global = 19200
gpgpu_n_mem_texture = 0
gpgpu_n_mem_const = 0
gpgpu_n_load_insn  = 0
gpgpu_n_store_insn = 307200
gpgpu_n_shmem_insn = 0
gpgpu_n_sstarr_insn = 0
gpgpu_n_tex_insn = 0
gpgpu_n_const_mem_insn = 0
gpgpu_n_param_mem_insn = 0
gpgpu_n_shmem_bkconflict = 0
gpgpu_n_cache_bkconflict = 0
gpgpu_n_intrawarp_mshr_merge = 0
gpgpu_n_cmem_portconflict = 0
gpgpu_stall_shd_mem[c_mem][resource_stall] = 0
gpgpu_stall_shd_mem[s_mem][bk_conf] = 0
gpgpu_stall_shd_mem[gl_mem][resource_stall] = 0
gpgpu_stall_shd_mem[gl_mem][coal_stall] = 9600
gpgpu_stall_shd_mem[gl_mem][data_port_stall] = 0
gpu_reg_bank_conflict_stalls = 0
Warp Occupancy Distribution:
Stall:861926	W0_Idle:94791	W0_Scoreboard:931	W1:0	W2:0	W3:0	W4:0	W5:0	W6:0	W7:0	W8:0	W9:0	W10:0	W11:0	W12:0	W13:0	W14:0	W15:0	W16:0	W17:0	W18:0	W19:0	W20:0	W21:0	W22:0	W23:0	W24:0	W25:0	W26:0	W27:0	W28:0	W29:0	W30:0	W31:0	W32:76800
single_issue_nums: WS0:31848	WS1:31840	
dual_issue_nums: WS0:3276	WS1:3280	
traffic_breakdown_coretomem[GLOBAL_ACC_W] = 2611200 {136:19200,}
traffic_breakdown_coretomem[INST_ACC_R] = 320 {8:40,}
traffic_breakdown_memtocore[GLOBAL_ACC_W] = 153600 {8:19200,}
traffic_breakdown_memtocore[INST_ACC_R] = 5440 {136:40,}
maxmflatency = 3837 
max_icnt2mem_latency = 1179 
maxmrqlatency = 2462 
max_icnt2sh_latency = 6 
averagemflatency = 934 
avg_icnt2mem_latency = 97 
avg_mrq_latency = 307 
avg_icnt2sh_latency = 4 
mrq_lat_table:3429 	21 	218 	836 	1297 	3090 	5029 	7541 	9047 	6511 	1355 	28 	0 	0 	0 	0 	0 	0 	0 	0 	0 	0 	0 	0 	0 	0 	0 	0 	0 	0 	0 	0 	
dq_lat_table:0 	0 	0 	0 	0 	0 	0 	0 	0 	0 	0 	0 	0 	0 	0 	0 	0 	0 	0 	0 	0 	0 	0 	0 	0 	0 	0 	0 	0 	0 	0 	0 	
mf_lat_table:0 	0 	0 	0 	0 	0 	0 	92 	3735 	8160 	6756 	457 	0 	0 	0 	0 	0 	0 	0 	0 	0 	0 	0 	0 	0 	0 	0 	0 	0 	0 	0 	0 	
icnt2mem_lat_table:0 	0 	26 	10565 	2995 	1554 	726 	769 	1247 	1351 	7 	0 	0 	0 	0 	0 	0 	0 	0 	0 	0 	0 	0 	0 	
icnt2sh_lat_table:0 	0 	19200 	0 	0 	0 	0 	0 	0 	0 	0 	0 	0 	0 	0 	0 	0 	0 	0 	0 	0 	0 	0 	0 	
mf_lat_pw_table:0 	0 	0 	0 	0 	0 	0 	0 	1 	33 	17 	0 	0 	0 	0 	0 	0 	0 	0 	0 	0 	0 	0 	0 	0 	0 	0 	0 	0 	0 	0 	0 	
maximum concurrent accesses to same row:
dram[0]:        18        20        18        18        16        18        12        10        14        14        28        28        10        10        14        14 
dram[1]:        20        20        18        18        18        18        18        18        20        20        26        26        12        14        16        16 
dram[2]:        18        18        24        24        20        20        20        20        16        16        30        30        12        12        14        16 
dram[3]:        18        18        22        22        18        18        16        16        20        20        26        26        12        12        20        16 
dram[4]:        18        18        18        18        18        18        20        20        20        20        30        30        10        10        18        18 
dram[5]:        22        22        18        18        16        16        16        16        14        14        26        26        12        14        16        16 
dram[6]:        18        18        22        22        14        14        14        14        18        18        30        30        14        14        16        16 
dram[7]:        22        22        12        12        18        18        18        18        14        14        28        28        16        16        10        10 
maximum service time to same row:
dram[0]:      1340      1341      3714      3565      1311      1307      2086      2082      2012      2011      3830      3840      4022      4024      4256      4266 
dram[1]:      1234      1229      1744      1744      2057      2058      2406      2391      2381      2367      3174      3174      3756      3702      2881      2875 
dram[2]:      1420      1421      2536      2325      1814      1809      2302      2295      1827      1978      3817      3810      2665      2650      3023      3010 
dram[3]:      1246      1242      1521      1532      2337      2341      1734      1728      3447      3470      3426      3426      3655      3655      3123      3117 
dram[4]:      1633      1622      2218      2212      2002      2020      2055      2048      2016      2007      3811      3796      3970      3961      3598      3589 
dram[5]:      1259      1255      1614      1604      2336      2346      1882      1877      1949      1932      3434      3429      4453      4464      5446      5436 
dram[6]:      1271      1269      1279      1274      1297      1294      1304      1300      1323      1321      3810      3815      4350      4408      4220      4212 
dram[7]:      1266      1262      1284      1282      1502      1300      1318      1314      1368      1368      3759      3780      4385      4377      4085      4076 
average row accesses per activate:
dram[0]:  5.348485  5.515625  8.421053  7.804878  4.056338  4.056338  3.388235  3.512195  3.600000  3.645570  4.500000  4.645161  3.740260  3.891892  4.235294  4.363636 
dram[1]:  4.240964  4.292683  6.956522  6.808511  5.142857  5.142857  5.538462  5.538462  4.114286  4.173913  4.000000  3.945205  3.310345  3.388235  4.571429  4.571429 
dram[2]:  4.821918  4.888889  6.400000  6.530612  4.114286  4.000000  3.348837  3.428571  3.891892  3.945205  5.433962  5.433962  3.428571  3.428571  3.840000  3.891892 
dram[3]:  3.868132  3.911111  6.153846  6.153846  5.052631  4.881356  4.800000  4.800000  3.840000  3.789474  4.000000  3.891892  3.235955  3.272727  4.363636  4.363636 
dram[4]:  4.400000  4.455696  5.614035  5.818182  4.298508  4.235294  3.740260  3.645570  4.298508  4.114286  5.433962  5.433962  3.388235  3.469880  4.800000  4.800000 
dram[5]:  4.141177  4.141177  5.161290  5.161290  4.965517  4.965517  4.173913  4.298508  3.600000  3.740260  3.555556  3.512195  3.512195  3.789474  4.800000  4.800000 
dram[6]:  4.400000  4.400000  4.848485  4.923077  3.645570  3.789474  3.840000  3.789474  3.645570  3.645570  4.363636  4.363636  5.142857  5.142857  4.056338  4.114286 
dram[7]:  3.955056  4.000000  4.848485  4.848485  5.333333  5.333333  4.645161  4.645161  3.891892  3.891892  3.555556  3.555556  4.298508  4.298508  3.388235  3.555556 
average row locality = 38402/8925 = 4.302745
number of total memory accesses made:
dram[0]:         0         0         0         0         0         0         0         0         0         0         0         0         0         0         0         0 
dram[1]:         0         0         0         0         0         0         0         0         0         0         0         0         0         0         0         0 
dram[2]:         0         0         0         0         0         0         0         0         0         0         0         0         0         0         0         0 
dram[3]:         0         0         0         0         0         0         0         0         0         0         0         0         0         0         0         0 
dram[4]:         0         0         0         0         0         0         0         0         0         0         0         0         0         0         0         0 
dram[5]:         0         0         0         0         0         0         0         0         0         0         0         0         0         0         0         0 
dram[6]:         0         0         0         0         0         0         0         0         0         0         0         0         0         0         0         0 
dram[7]:         0         0         0         0         0         0         0         0         0         0         0         0         0         0         0         0 
total accesses: 0
min_bank_accesses = 0!
min_chip_accesses = 0!
number of total read accesses:
dram[0]:       708       708       640       640       576       576       576       576       576       576       576       576       576       576       576       576 
dram[1]:       704       704       640       640       576       576       576       576       576       576       576       576       576       576       576       576 
dram[2]:       704       704       640       640       576       576       576       576       576       576       576       576       576       576       576       576 
dram[3]:       704       704       640       640       576       576       576       576       576       576       576       576       576       576       576       576 
dram[4]:       704       704       640       640       576       576       576       576       576       576       576       576       576       576       576       576 
dram[5]:       704       704       640       640       576       576       576       576       576       576       576       576       576       576       576       576 
dram[6]:       704       704       640       640       576       576       576       576       576       576       576       576       576       576       576       576 
dram[7]:       704       704       640       640       576       576       576       576       576       576       576       576       576       576       576       576 
total dram reads = 76808
bank skew: 708/576 = 1.23
chip skew: 9608/9600 = 1.00
number of total write accesses:
dram[0]:       704       704       640       640       576       576       576       576       576       576       576       576       576       576       576       576 
dram[1]:       704       704       640       640       576       576       576       576       576       576       576       576       576       576       576       576 
dram[2]:       704       704       640       640       576       576       576       576       576       576       576       576       576       576       576       576 
dram[3]:       704       704       640       640       576       576       576       576       576       576       576       576       576       576       576       576 
dram[4]:       704       704       640       640       576       576       576       576       576       576       576       576       576       576       576       576 
dram[5]:       704       704       640       640       576       576       576       576       576       576       576       576       576       576       576       576 
dram[6]:       704       704       640       640       576       576       576       576       576       576       576       576       576       576       576       576 
dram[7]:       704       704       640       640       576       576       576       576       576       576       576       576       576       576       576       576 
total dram writes = 76800
bank skew: 704/576 = 1.22
chip skew: 9600/9600 = 1.00
average mf latency per bank:
dram[0]:        145       147       159       159       121       127       111       116       107       111       131       138       109       117       120       122
dram[1]:        121       125       175       182       139       147       132       137       116       123       116       121       113       117       121       127
dram[2]:        125       129       136       138       106       110        91        94       101       100       124       126        90        94        99       101
dram[3]:         90        93       110       113        94        96        94        98        90        97        89        93        78        82        90        96
dram[4]:         97       100        99       104        88        91        81        79        81        84       103       106        83        86       100       105
dram[5]:         83        84        92        96        93        95        82        85        74        75        70        73        81        84        94        97
dram[6]:        142       150       142       150       133       138       139       147       129       136       157       167       198       210       149       159
dram[7]:        129       136       128       135       138       145       126       132       127       134       123       131       154       161       121       128
maximum mf latency per bank:
dram[0]:       2170      2323      2714      2782      2084      2131      1643      1761      1732      1848      2795      3403      1734      1886      2053      2061
dram[1]:       2037      2045      3611      3710      2134      2466      2126      2156      1917      2151      2219      1943      1856      1929      1882      2214
dram[2]:       2309      2322      2436      2450      2568      2576      1698      1722      2072      1994      2528      2133      1752      1862      1622      1764
dram[3]:       1975      1986      2143      2286      1820      1855      1493      1741      1835      1843      1698      1709      1360      1368      1937      1901
dram[4]:       2009      2093      1958      1968      1704      1860      1607      1632      1582      1431      2062      2071      1504      1516      1809      1824
dram[5]:       1591      1599      2051      2065      1914      1923      1980      1988      1746      1661      1192      1182      1635      1645      1646      2043
dram[6]:       2217      2225      2195      2313      2215      2224      2690      3002      2382      2390      2609      2669      3830      3837      1929      2176
dram[7]:       2865      2873      1971      1925      2071      2079      2004      2011      1976      2430      2038      2075      3170      3521      1848      2195
Memory Partition 0: 
Cache L2_bank_000:
MSHR contents

Cache L2_bank_001:
MSHR contents

In Dram Latency Queue (total = 0): 
DRAM[0]: 16 bks, busW=4 BL=8 CL=12, tRRD=6 tCCD=2, tRCD=12 tRAS=28 tRP=12 tRC=40
n_cmd=45607 n_nop=24693 n_act=1088 n_pre=1072 n_ref_event=0 n_req=4802 n_rd=8 n_rd_L2_A=9600 n_write=9600 n_wr_bk=0 bw_util=0.8423
n_activity=42832 dram_eff=0.8969
bk0: 708a 11655i bk1: 708a 11605i bk2: 640a 13025i bk3: 640a 13558i bk4: 576a 16196i bk5: 576a 16026i bk6: 576a 15720i bk7: 576a 15575i bk8: 576a 16634i bk9: 576a 16377i bk10: 576a 16621i bk11: 576a 16243i bk12: 576a 16330i bk13: 576a 16237i bk14: 576a 18470i bk15: 576a 18161i 

------------------------------------------------------------------------

Row_Buffer_Locality = 0.773428
Row_Buffer_Locality_read = 0.999167
Row_Buffer_Locality_write = 0.547500
Bank_Level_Parallism = 11.368265
Bank_Level_Parallism_Col = 10.980124
Bank_Level_Parallism_Ready = 6.210793
write_to_read_ratio_blp_rw_average = 0.471404
GrpLevelPara = 1.000000 

BW Util details:
bwutil = 0.842327 
total_CMD = 45607 
util_bw = 38416 
Wasted_Col = 4354 
Wasted_Row = 12 
Idle = 2825 

BW Util Bottlenecks: 
RCDc_limit = 24 
RCDWRc_limit = 869 
WTRc_limit = 21946 
RTWc_limit = 21688 
CCDLc_limit = 0 
rwq = 0 
CCDLc_limit_alone = 0 
WTRc_limit_alone = 21946 
RTWc_limit_alone = 21688 

Commands details: 
total_CMD = 45607 
n_nop = 24693 
Read = 8 
Write = 9600 
L2_Alloc = 9600 
L2_WB = 0 
n_act = 1088 
n_pre = 1072 
n_ref = 0 
n_req = 4802 
total_req = 19208 

Dual Bus Interface Util: 
issued_total_row = 2160 
issued_total_col = 19208 
Row_Bus_Util =  0.047361 
CoL_Bus_Util = 0.421163 
Either_Row_CoL_Bus_Util = 0.458570 
Issued_on_Two_Bus_Simul_Util = 0.009955 
issued_two_Eff = 0.021708 
queue_avg = 57.891399 


dram_util_bins: 0 0 0 0 0 0 0 0 0 0
dram_eff_bins: 0 0 0 0 0 0 0 0 0 0
mrqq: max=64 avg=57.8914
Memory Partition 1: 
Cache L2_bank_002:
MSHR contents

Cache L2_bank_003:
MSHR contents

In Dram Latency Queue (total = 0): 
DRAM[1]: 16 bks, busW=4 BL=8 CL=12, tRRD=6 tCCD=2, tRCD=12 tRAS=28 tRP=12 tRC=40
n_cmd=45607 n_nop=24719 n_act=1056 n_pre=1040 n_ref_event=0 n_req=4800 n_rd=0 n_rd_L2_A=9600 n_write=9600 n_wr_bk=0 bw_util=0.842
n_activity=42809 dram_eff=0.897
bk0: 704a 12541i bk1: 704a 12304i bk2: 640a 14222i bk3: 640a 14182i bk4: 576a 17452i bk5: 576a 17325i bk6: 576a 16489i bk7: 576a 16039i bk8: 576a 17143i bk9: 576a 17014i bk10: 576a 16877i bk11: 576a 16670i bk12: 576a 17422i bk13: 576a 17931i bk14: 576a 17742i bk15: 576a 17729i 

------------------------------------------------------------------------

Row_Buffer_Locality = 0.780000
Row_Buffer_Locality_read = 1.000000
Row_Buffer_Locality_write = 0.560000
Bank_Level_Parallism = 11.110893
Bank_Level_Parallism_Col = 10.742311
Bank_Level_Parallism_Ready = 6.091651
write_to_read_ratio_blp_rw_average = 0.470810
GrpLevelPara = 1.000000 

BW Util details:
bwutil = 0.841976 
total_CMD = 45607 
util_bw = 38400 
Wasted_Col = 4396 
Wasted_Row = 3 
Idle = 2808 

BW Util Bottlenecks: 
RCDc_limit = 0 
RCDWRc_limit = 934 
WTRc_limit = 21988 
RTWc_limit = 21523 
CCDLc_limit = 0 
rwq = 0 
CCDLc_limit_alone = 0 
WTRc_limit_alone = 21988 
RTWc_limit_alone = 21523 

Commands details: 
total_CMD = 45607 
n_nop = 24719 
Read = 0 
Write = 9600 
L2_Alloc = 9600 
L2_WB = 0 
n_act = 1056 
n_pre = 1040 
n_ref = 0 
n_req = 4800 
total_req = 19200 

Dual Bus Interface Util: 
issued_total_row = 2096 
issued_total_col = 19200 
Row_Bus_Util =  0.045958 
CoL_Bus_Util = 0.420988 
Either_Row_CoL_Bus_Util = 0.458000 
Issued_on_Two_Bus_Simul_Util = 0.008946 
issued_two_Eff = 0.019533 
queue_avg = 57.363716 


dram_util_bins: 0 0 0 0 0 0 0 0 0 0
dram_eff_bins: 0 0 0 0 0 0 0 0 0 0
mrqq: max=64 avg=57.3637
Memory Partition 2: 
Cache L2_bank_004:
MSHR contents

Cache L2_bank_005:
MSHR contents

In Dram Latency Queue (total = 0): 
DRAM[2]: 16 bks, busW=4 BL=8 CL=12, tRRD=6 tCCD=2, tRCD=12 tRAS=28 tRP=12 tRC=40
n_cmd=45607 n_nop=24609 n_act=1126 n_pre=1110 n_ref_event=0 n_req=4800 n_rd=0 n_rd_L2_A=9600 n_write=9600 n_wr_bk=0 bw_util=0.842
n_activity=43032 dram_eff=0.8924
bk0: 704a 13517i bk1: 704a 13499i bk2: 640a 13874i bk3: 640a 14030i bk4: 576a 17219i bk5: 576a 16990i bk6: 576a 16863i bk7: 576a 16633i bk8: 576a 16713i bk9: 576a 16758i bk10: 576a 16268i bk11: 576a 16211i bk12: 576a 17127i bk13: 576a 17032i bk14: 576a 19011i bk15: 576a 18904i 

------------------------------------------------------------------------

Row_Buffer_Locality = 0.765417
Row_Buffer_Locality_read = 1.000000
Row_Buffer_Locality_write = 0.530833
Bank_Level_Parallism = 11.020805
Bank_Level_Parallism_Col = 10.626922
Bank_Level_Parallism_Ready = 6.081934
write_to_read_ratio_blp_rw_average = 0.465635
GrpLevelPara = 1.000000 

BW Util details:
bwutil = 0.841976 
total_CMD = 45607 
util_bw = 38400 
Wasted_Col = 4606 
Wasted_Row = 14 
Idle = 2587 

BW Util Bottlenecks: 
RCDc_limit = 0 
RCDWRc_limit = 1029 
WTRc_limit = 22380 
RTWc_limit = 21219 
CCDLc_limit = 0 
rwq = 0 
CCDLc_limit_alone = 0 
WTRc_limit_alone = 22380 
RTWc_limit_alone = 21219 

Commands details: 
total_CMD = 45607 
n_nop = 24609 
Read = 0 
Write = 9600 
L2_Alloc = 9600 
L2_WB = 0 
n_act = 1126 
n_pre = 1110 
n_ref = 0 
n_req = 4800 
total_req = 19200 

Dual Bus Interface Util: 
issued_total_row = 2236 
issued_total_col = 19200 
Row_Bus_Util =  0.049028 
CoL_Bus_Util = 0.420988 
Either_Row_CoL_Bus_Util = 0.460412 
Issued_on_Two_Bus_Simul_Util = 0.009604 
issued_two_Eff = 0.020859 
queue_avg = 53.186989 


dram_util_bins: 0 0 0 0 0 0 0 0 0 0
dram_eff_bins: 0 0 0 0 0 0 0 0 0 0
mrqq: max=64 avg=53.187
Memory Partition 3: 
Cache L2_bank_006:
MSHR contents

Cache L2_bank_007:
MSHR contents

In Dram Latency Queue (total = 0): 
DRAM[3]: 16 bks, busW=4 BL=8 CL=12, tRRD=6 tCCD=2, tRCD=12 tRAS=28 tRP=12 tRC=40
n_cmd=45607 n_nop=24621 n_act=1127 n_pre=1111 n_ref_event=0 n_req=4800 n_rd=0 n_rd_L2_A=9600 n_write=9600 n_wr_bk=0 bw_util=0.842
n_activity=42964 dram_eff=0.8938
bk0: 704a 12131i bk1: 704a 11981i bk2: 640a 14291i bk3: 640a 14042i bk4: 576a 17672i bk5: 576a 17466i bk6: 576a 17016i bk7: 576a 16890i bk8: 576a 17068i bk9: 576a 16782i bk10: 576a 16874i bk11: 576a 17098i bk12: 576a 17456i bk13: 576a 17264i bk14: 576a 18440i bk15: 576a 18581i 

------------------------------------------------------------------------

Row_Buffer_Locality = 0.765208
Row_Buffer_Locality_read = 0.999583
Row_Buffer_Locality_write = 0.530833
Bank_Level_Parallism = 11.032635
Bank_Level_Parallism_Col = 10.643392
Bank_Level_Parallism_Ready = 6.052150
write_to_read_ratio_blp_rw_average = 0.469480
GrpLevelPara = 1.000000 

BW Util details:
bwutil = 0.841976 
total_CMD = 45607 
util_bw = 38400 
Wasted_Col = 4504 
Wasted_Row = 30 
Idle = 2673 

BW Util Bottlenecks: 
RCDc_limit = 0 
RCDWRc_limit = 1012 
WTRc_limit = 21909 
RTWc_limit = 21388 
CCDLc_limit = 0 
rwq = 0 
CCDLc_limit_alone = 0 
WTRc_limit_alone = 21909 
RTWc_limit_alone = 21388 

Commands details: 
total_CMD = 45607 
n_nop = 24621 
Read = 0 
Write = 9600 
L2_Alloc = 9600 
L2_WB = 0 
n_act = 1127 
n_pre = 1111 
n_ref = 0 
n_req = 4800 
total_req = 19200 

Dual Bus Interface Util: 
issued_total_row = 2238 
issued_total_col = 19200 
Row_Bus_Util =  0.049071 
CoL_Bus_Util = 0.420988 
Either_Row_CoL_Bus_Util = 0.460149 
Issued_on_Two_Bus_Simul_Util = 0.009911 
issued_two_Eff = 0.021538 
queue_avg = 53.911724 


dram_util_bins: 0 0 0 0 0 0 0 0 0 0
dram_eff_bins: 0 0 0 0 0 0 0 0 0 0
mrqq: max=64 avg=53.9117
Memory Partition 4: 
Cache L2_bank_008:
MSHR contents
MSHR: tag=0xf5c1c00, atomic=0 1 entries : 0x55e8bf265f50 :  mf: uid= 85364, sid08:w60, part=4, addr=0x7f610f5c1c00, load , size=128, unknown  status = IN_PARTITION_DRAM (26651), 

Cache L2_bank_009:
MSHR contents
MSHR: tag=0xf781c80, atomic=0 1 entries : 0x55e8bf0c6a80 :  mf: uid= 85355, sid18:w28, part=4, addr=0x7f610f781c80, load , size=128, unknown  status = IN_PARTITION_DRAM (26651), 

In Dram Latency Queue (total = 0): 
DRAM[4]: 16 bks, busW=4 BL=8 CL=12, tRRD=6 tCCD=2, tRCD=12 tRAS=28 tRP=12 tRC=40
n_cmd=45607 n_nop=24652 n_act=1093 n_pre=1077 n_ref_event=0 n_req=4800 n_rd=0 n_rd_L2_A=9594 n_write=9600 n_wr_bk=0 bw_util=0.8417
n_activity=43071 dram_eff=0.8913
bk0: 702a 13927i bk1: 700a 13801i bk2: 640a 14657i bk3: 640a 14558i bk4: 576a 17312i bk5: 576a 17229i bk6: 576a 17264i bk7: 576a 17110i bk8: 576a 16468i bk9: 576a 16222i bk10: 576a 16984i bk11: 576a 17217i bk12: 576a 18052i bk13: 576a 17619i bk14: 576a 19430i bk15: 576a 19197i 

------------------------------------------------------------------------

Row_Buffer_Locality = 0.772292
Row_Buffer_Locality_read = 1.000000
Row_Buffer_Locality_write = 0.544583
Bank_Level_Parallism = 10.863365
Bank_Level_Parallism_Col = 10.486087
Bank_Level_Parallism_Ready = 6.015150
write_to_read_ratio_blp_rw_average = 0.472105
GrpLevelPara = 1.000000 

BW Util details:
bwutil = 0.841713 
total_CMD = 45607 
util_bw = 38388 
Wasted_Col = 4636 
Wasted_Row = 27 
Idle = 2556 

BW Util Bottlenecks: 
RCDc_limit = 0 
RCDWRc_limit = 1020 
WTRc_limit = 21811 
RTWc_limit = 21396 
CCDLc_limit = 0 
rwq = 0 
CCDLc_limit_alone = 0 
WTRc_limit_alone = 21811 
RTWc_limit_alone = 21396 

Commands details: 
total_CMD = 45607 
n_nop = 24652 
Read = 0 
Write = 9600 
L2_Alloc = 9594 
L2_WB = 0 
n_act = 1093 
n_pre = 1077 
n_ref = 0 
n_req = 4800 
total_req = 19194 

Dual Bus Interface Util: 
issued_total_row = 2170 
issued_total_col = 19194 
Row_Bus_Util =  0.047580 
CoL_Bus_Util = 0.420856 
Either_Row_CoL_Bus_Util = 0.459469 
Issued_on_Two_Bus_Simul_Util = 0.008968 
issued_two_Eff = 0.019518 
queue_avg = 51.833557 


dram_util_bins: 0 0 0 0 0 0 0 0 0 0
dram_eff_bins: 0 0 0 0 0 0 0 0 0 0
mrqq: max=64 avg=51.8336
Memory Partition 5: 
Cache L2_bank_010:
MSHR contents

Cache L2_bank_011:
MSHR contents

In Dram Latency Queue (total = 0): 
DRAM[5]: 16 bks, busW=4 BL=8 CL=12, tRRD=6 tCCD=2, tRCD=12 tRAS=28 tRP=12 tRC=40
n_cmd=45607 n_nop=24578 n_act=1144 n_pre=1128 n_ref_event=0 n_req=4800 n_rd=0 n_rd_L2_A=9600 n_write=9600 n_wr_bk=0 bw_util=0.842
n_activity=43050 dram_eff=0.892
bk0: 704a 13280i bk1: 704a 13107i bk2: 640a 14477i bk3: 640a 14238i bk4: 576a 17407i bk5: 576a 17359i bk6: 576a 17653i bk7: 576a 17180i bk8: 576a 17255i bk9: 576a 17305i bk10: 576a 18060i bk11: 576a 17517i bk12: 576a 18411i bk13: 576a 18234i bk14: 576a 18742i bk15: 576a 18626i 

------------------------------------------------------------------------

Row_Buffer_Locality = 0.761667
Row_Buffer_Locality_read = 0.999167
Row_Buffer_Locality_write = 0.524167
Bank_Level_Parallism = 10.826531
Bank_Level_Parallism_Col = 10.428163
Bank_Level_Parallism_Ready = 5.950150
write_to_read_ratio_blp_rw_average = 0.468969
GrpLevelPara = 1.000000 

BW Util details:
bwutil = 0.841976 
total_CMD = 45607 
util_bw = 38400 
Wasted_Col = 4618 
Wasted_Row = 12 
Idle = 2577 

BW Util Bottlenecks: 
RCDc_limit = 3 
RCDWRc_limit = 1024 
WTRc_limit = 21897 
RTWc_limit = 20993 
CCDLc_limit = 0 
rwq = 0 
CCDLc_limit_alone = 0 
WTRc_limit_alone = 21897 
RTWc_limit_alone = 20993 

Commands details: 
total_CMD = 45607 
n_nop = 24578 
Read = 0 
Write = 9600 
L2_Alloc = 9600 
L2_WB = 0 
n_act = 1144 
n_pre = 1128 
n_ref = 0 
n_req = 4800 
total_req = 19200 

Dual Bus Interface Util: 
issued_total_row = 2272 
issued_total_col = 19200 
Row_Bus_Util =  0.049817 
CoL_Bus_Util = 0.420988 
Either_Row_CoL_Bus_Util = 0.461091 
Issued_on_Two_Bus_Simul_Util = 0.009713 
issued_two_Eff = 0.021066 
queue_avg = 51.454952 


dram_util_bins: 0 0 0 0 0 0 0 0 0 0
dram_eff_bins: 0 0 0 0 0 0 0 0 0 0
mrqq: max=64 avg=51.455
Memory Partition 6: 
Cache L2_bank_012:
MSHR contents

Cache L2_bank_013:
MSHR contents

In Dram Latency Queue (total = 0): 
DRAM[6]: 16 bks, busW=4 BL=8 CL=12, tRRD=6 tCCD=2, tRCD=12 tRAS=28 tRP=12 tRC=40
n_cmd=45607 n_nop=24671 n_act=1140 n_pre=1124 n_ref_event=0 n_req=4800 n_rd=0 n_rd_L2_A=9600 n_write=9600 n_wr_bk=0 bw_util=0.842
n_activity=42585 dram_eff=0.9017
bk0: 704a 11095i bk1: 704a 11095i bk2: 640a 13302i bk3: 640a 13374i bk4: 576a 15488i bk5: 576a 15429i bk6: 576a 16930i bk7: 576a 17000i bk8: 576a 17599i bk9: 576a 17399i bk10: 576a 15158i bk11: 576a 15028i bk12: 576a 14788i bk13: 576a 14846i bk14: 576a 15986i bk15: 576a 16207i 

------------------------------------------------------------------------

Row_Buffer_Locality = 0.762500
Row_Buffer_Locality_read = 0.999167
Row_Buffer_Locality_write = 0.525833
Bank_Level_Parallism = 11.601024
Bank_Level_Parallism_Col = 11.183644
Bank_Level_Parallism_Ready = 6.322539
write_to_read_ratio_blp_rw_average = 0.468061
GrpLevelPara = 1.000000 

BW Util details:
bwutil = 0.841976 
total_CMD = 45607 
util_bw = 38400 
Wasted_Col = 4170 
Wasted_Row = 5 
Idle = 3032 

BW Util Bottlenecks: 
RCDc_limit = 10 
RCDWRc_limit = 923 
WTRc_limit = 21672 
RTWc_limit = 21371 
CCDLc_limit = 0 
rwq = 0 
CCDLc_limit_alone = 0 
WTRc_limit_alone = 21672 
RTWc_limit_alone = 21371 

Commands details: 
total_CMD = 45607 
n_nop = 24671 
Read = 0 
Write = 9600 
L2_Alloc = 9600 
L2_WB = 0 
n_act = 1140 
n_pre = 1124 
n_ref = 0 
n_req = 4800 
total_req = 19200 

Dual Bus Interface Util: 
issued_total_row = 2264 
issued_total_col = 19200 
Row_Bus_Util =  0.049642 
CoL_Bus_Util = 0.420988 
Either_Row_CoL_Bus_Util = 0.459052 
Issued_on_Two_Bus_Simul_Util = 0.011577 
issued_two_Eff = 0.025220 
queue_avg = 58.369812 


dram_util_bins: 0 0 0 0 0 0 0 0 0 0
dram_eff_bins: 0 0 0 0 0 0 0 0 0 0
mrqq: max=64 avg=58.3698
Memory Partition 7: 
Cache L2_bank_014:
MSHR contents

Cache L2_bank_015:
MSHR contents

In Dram Latency Queue (total = 0): 
DRAM[7]: 16 bks, busW=4 BL=8 CL=12, tRRD=6 tCCD=2, tRCD=12 tRAS=28 tRP=12 tRC=40
n_cmd=45607 n_nop=24669 n_act=1151 n_pre=1135 n_ref_event=0 n_req=4800 n_rd=0 n_rd_L2_A=9600 n_write=9600 n_wr_bk=0 bw_util=0.842
n_activity=42483 dram_eff=0.9039
bk0: 704a 11233i bk1: 704a 11160i bk2: 640a 11645i bk3: 640a 11535i bk4: 576a 13878i bk5: 576a 13798i bk6: 576a 13964i bk7: 576a 14093i bk8: 576a 14694i bk9: 576a 14897i bk10: 576a 14831i bk11: 576a 14701i bk12: 576a 15327i bk13: 576a 15248i bk14: 576a 15709i bk15: 576a 15617i 

------------------------------------------------------------------------

Row_Buffer_Locality = 0.760208
Row_Buffer_Locality_read = 0.999583
Row_Buffer_Locality_write = 0.520833
Bank_Level_Parallism = 12.063736
Bank_Level_Parallism_Col = 11.644492
Bank_Level_Parallism_Ready = 6.553296
write_to_read_ratio_blp_rw_average = 0.469572
GrpLevelPara = 1.000000 

BW Util details:
bwutil = 0.841976 
total_CMD = 45607 
util_bw = 38400 
Wasted_Col = 4070 
Wasted_Row = 3 
Idle = 3134 

BW Util Bottlenecks: 
RCDc_limit = 0 
RCDWRc_limit = 872 
WTRc_limit = 21691 
RTWc_limit = 21707 
CCDLc_limit = 0 
rwq = 0 
CCDLc_limit_alone = 0 
WTRc_limit_alone = 21691 
RTWc_limit_alone = 21707 

Commands details: 
total_CMD = 45607 
n_nop = 24669 
Read = 0 
Write = 9600 
L2_Alloc = 9600 
L2_WB = 0 
n_act = 1151 
n_pre = 1135 
n_ref = 0 
n_req = 4800 
total_req = 19200 

Dual Bus Interface Util: 
issued_total_row = 2286 
issued_total_col = 19200 
Row_Bus_Util =  0.050124 
CoL_Bus_Util = 0.420988 
Either_Row_CoL_Bus_Util = 0.459096 
Issued_on_Two_Bus_Simul_Util = 0.012016 
issued_two_Eff = 0.026173 
queue_avg = 57.671982 


dram_util_bins: 0 0 0 0 0 0 0 0 0 0
dram_eff_bins: 0 0 0 0 0 0 0 0 0 0
mrqq: max=64 avg=57.672

========= L2 cache stats =========
L2_cache_bank[0]: Access = 1220, Miss = 1201, Miss_rate = 0.984, Pending_hits = 19, Reservation_fails = 16
L2_cache_bank[1]: Access = 1220, Miss = 1201, Miss_rate = 0.984, Pending_hits = 19, Reservation_fails = 16
L2_cache_bank[2]: Access = 1200, Miss = 1200, Miss_rate = 1.000, Pending_hits = 0, Reservation_fails = 12
L2_cache_bank[3]: Access = 1200, Miss = 1200, Miss_rate = 1.000, Pending_hits = 0, Reservation_fails = 13
L2_cache_bank[4]: Access = 1200, Miss = 1200, Miss_rate = 1.000, Pending_hits = 0, Reservation_fails = 27
L2_cache_bank[5]: Access = 1200, Miss = 1200, Miss_rate = 1.000, Pending_hits = 0, Reservation_fails = 29
L2_cache_bank[6]: Access = 1200, Miss = 1200, Miss_rate = 1.000, Pending_hits = 0, Reservation_fails = 19
L2_cache_bank[7]: Access = 1200, Miss = 1200, Miss_rate = 1.000, Pending_hits = 0, Reservation_fails = 21
L2_cache_bank[8]: Access = 1200, Miss = 1200, Miss_rate = 1.000, Pending_hits = 0, Reservation_fails = 6
L2_cache_bank[9]: Access = 1200, Miss = 1200, Miss_rate = 1.000, Pending_hits = 0, Reservation_fails = 7
L2_cache_bank[10]: Access = 1200, Miss = 1200, Miss_rate = 1.000, Pending_hits = 0, Reservation_fails = 7
L2_cache_bank[11]: Access = 1200, Miss = 1200, Miss_rate = 1.000, Pending_hits = 0, Reservation_fails = 8
L2_cache_bank[12]: Access = 1200, Miss = 1200, Miss_rate = 1.000, Pending_hits = 0, Reservation_fails = 18
L2_cache_bank[13]: Access = 1200, Miss = 1200, Miss_rate = 1.000, Pending_hits = 0, Reservation_fails = 19
L2_cache_bank[14]: Access = 1200, Miss = 1200, Miss_rate = 1.000, Pending_hits = 0, Reservation_fails = 23
L2_cache_bank[15]: Access = 1200, Miss = 1200, Miss_rate = 1.000, Pending_hits = 0, Reservation_fails = 19
L2_total_cache_accesses = 19240
L2_total_cache_misses = 19202
L2_total_cache_miss_rate = 0.9980
L2_total_cache_pending_hits = 38
L2_total_cache_reservation_fails = 260
L2_total_cache_breakdown:
	L2_cache_stats_breakdown[GLOBAL_ACC_R][HIT] = 0
	L2_cache_stats_breakdown[GLOBAL_ACC_R][HIT_RESERVED] = 0
	L2_cache_stats_breakdown[GLOBAL_ACC_R][MISS] = 0
	L2_cache_stats_breakdown[GLOBAL_ACC_R][RESERVATION_FAIL] = 0
	L2_cache_stats_breakdown[GLOBAL_ACC_R][SECTOR_MISS] = 0
	L2_cache_stats_breakdown[GLOBAL_ACC_R][MSHR_HIT] = 0
	L2_cache_stats_breakdown[LOCAL_ACC_R][HIT] = 0
	L2_cache_stats_breakdown[LOCAL_ACC_R][HIT_RESERVED] = 0
	L2_cache_stats_breakdown[LOCAL_ACC_R][MISS] = 0
	L2_cache_stats_breakdown[LOCAL_ACC_R][RESERVATION_FAIL] = 0
	L2_cache_stats_breakdown[LOCAL_ACC_R][SECTOR_MISS] = 0
	L2_cache_stats_breakdown[LOCAL_ACC_R][MSHR_HIT] = 0
	L2_cache_stats_breakdown[CONST_ACC_R][HIT] = 0
	L2_cache_stats_breakdown[CONST_ACC_R][HIT_RESERVED] = 0
	L2_cache_stats_breakdown[CONST_ACC_R][MISS] = 0
	L2_cache_stats_breakdown[CONST_ACC_R][RESERVATION_FAIL] = 0
	L2_cache_stats_breakdown[CONST_ACC_R][SECTOR_MISS] = 0
	L2_cache_stats_breakdown[CONST_ACC_R][MSHR_HIT] = 0
	L2_cache_stats_breakdown[TEXTURE_ACC_R][HIT] = 0
	L2_cache_stats_breakdown[TEXTURE_ACC_R][HIT_RESERVED] = 0
	L2_cache_stats_breakdown[TEXTURE_ACC_R][MISS] = 0
	L2_cache_stats_breakdown[TEXTURE_ACC_R][RESERVATION_FAIL] = 0
	L2_cache_stats_breakdown[TEXTURE_ACC_R][SECTOR_MISS] = 0
	L2_cache_stats_breakdown[TEXTURE_ACC_R][MSHR_HIT] = 0
	L2_cache_stats_breakdown[GLOBAL_ACC_W][HIT] = 0
	L2_cache_stats_breakdown[GLOBAL_ACC_W][HIT_RESERVED] = 0
	L2_cache_stats_breakdown[GLOBAL_ACC_W][MISS] = 19200
	L2_cache_stats_breakdown[GLOBAL_ACC_W][RESERVATION_FAIL] = 260
	L2_cache_stats_breakdown[GLOBAL_ACC_W][SECTOR_MISS] = 0
	L2_cache_stats_breakdown[GLOBAL_ACC_W][MSHR_HIT] = 0
	L2_cache_stats_breakdown[LOCAL_ACC_W][HIT] = 0
	L2_cache_stats_breakdown[LOCAL_ACC_W][HIT_RESERVED] = 0
	L2_cache_stats_breakdown[LOCAL_ACC_W][MISS] = 0
	L2_cache_stats_breakdown[LOCAL_ACC_W][RESERVATION_FAIL] = 0
	L2_cache_stats_breakdown[LOCAL_ACC_W][SECTOR_MISS] = 0
	L2_cache_stats_breakdown[LOCAL_ACC_W][MSHR_HIT] = 0
	L2_cache_stats_breakdown[L1_WRBK_ACC][HIT] = 0
	L2_cache_stats_breakdown[L1_WRBK_ACC][HIT_RESERVED] = 0
	L2_cache_stats_breakdown[L1_WRBK_ACC][MISS] = 0
	L2_cache_stats_breakdown[L1_WRBK_ACC][RESERVATION_FAIL] = 0
	L2_cache_stats_breakdown[L1_WRBK_ACC][SECTOR_MISS] = 0
	L2_cache_stats_breakdown[L1_WRBK_ACC][MSHR_HIT] = 0
	L2_cache_stats_breakdown[L2_WRBK_ACC][HIT] = 0
	L2_cache_stats_breakdown[L2_WRBK_ACC][HIT_RESERVED] = 0
	L2_cache_stats_breakdown[L2_WRBK_ACC][MISS] = 0
	L2_cache_stats_breakdown[L2_WRBK_ACC][RESERVATION_FAIL] = 0
	L2_cache_stats_breakdown[L2_WRBK_ACC][SECTOR_MISS] = 0
	L2_cache_stats_breakdown[L2_WRBK_ACC][MSHR_HIT] = 0
	L2_cache_stats_breakdown[INST_ACC_R][HIT] = 0
	L2_cache_stats_breakdown[INST_ACC_R][HIT_RESERVED] = 38
	L2_cache_stats_breakdown[INST_ACC_R][MISS] = 2
	L2_cache_stats_breakdown[INST_ACC_R][RESERVATION_FAIL] = 0
	L2_cache_stats_breakdown[INST_ACC_R][SECTOR_MISS] = 0
	L2_cache_stats_breakdown[INST_ACC_R][MSHR_HIT] = 38
	L2_cache_stats_breakdown[L1_WR_ALLOC_R][HIT] = 0
	L2_cache_stats_breakdown[L1_WR_ALLOC_R][HIT_RESERVED] = 0
	L2_cache_stats_breakdown[L1_WR_ALLOC_R][MISS] = 0
	L2_cache_stats_breakdown[L1_WR_ALLOC_R][RESERVATION_FAIL] = 0
	L2_cache_stats_breakdown[L1_WR_ALLOC_R][SECTOR_MISS] = 0
	L2_cache_stats_breakdown[L1_WR_ALLOC_R][MSHR_HIT] = 0
	L2_cache_stats_breakdown[L2_WR_ALLOC_R][HIT] = 0
	L2_cache_stats_breakdown[L2_WR_ALLOC_R][HIT_RESERVED] = 0
	L2_cache_stats_breakdown[L2_WR_ALLOC_R][MISS] = 0
	L2_cache_stats_breakdown[L2_WR_ALLOC_R][RESERVATION_FAIL] = 0
	L2_cache_stats_breakdown[L2_WR_ALLOC_R][SECTOR_MISS] = 0
	L2_cache_stats_breakdown[L2_WR_ALLOC_R][MSHR_HIT] = 0
	L2_cache_stats_breakdown[GLOBAL_ACC_W][TOTAL_ACCESS] = 19200
	L2_cache_stats_breakdown[INST_ACC_R][TOTAL_ACCESS] = 40
L2_total_cache_reservation_fail_breakdown:
	L2_cache_stats_fail_breakdown[GLOBAL_ACC_W][MISS_QUEUE_FULL] = 260
L2_cache_data_port_util = 0.000
L2_cache_fill_port_util = 0.180

icnt_total_pkts_mem_to_simt=19400
icnt_total_pkts_simt_to_mem=96040
LD_mem_lat_dist  0 0 0 0 0 0 0 0 0 0 0 0 0 0 0 0 0 0 0 0 0 0 0 0 0 0 0
ST_mem_lat_dist  0 0 0 0 0 0 0 0 0 0 0 0 0 0 0 0 0 0 0 0 0 0 0 0 0 0 0
----------------------------Interconnect-DETAILS--------------------------------
Class 0:
Packet latency average = 77.7679
	minimum = 6
	maximum = 2171
Network latency average = 56.0365
	minimum = 6
	maximum = 2020
Slowest packet = 1144
Flit latency average = 70.5203
	minimum = 6
	maximum = 2016
Slowest flit = 83570
Fragmentation average = 4.02773
	minimum = 0
	maximum = 1421
Injected packet rate average = 0.0156668
	minimum = 0 (at node 36)
	maximum = 0.0248356 (at node 20)
Accepted packet rate average = 0.0156668
	minimum = 0 (at node 36)
	maximum = 0.0248356 (at node 20)
Injected flit rate average = 0.0470004
	minimum = 0 (at node 36)
	maximum = 0.117297 (at node 8)
Accepted flit rate average= 0.0470004
	minimum = 0 (at node 36)
	maximum = 0.12255 (at node 20)
Injected packet length average = 3
Accepted packet length average = 3
Total in-flight flits = 0 (0 measured)
====== Overall Traffic Statistics ======
====== Traffic class 0 ======
Packet latency average = 77.7679 (1 samples)
	minimum = 6 (1 samples)
	maximum = 2171 (1 samples)
Network latency average = 56.0365 (1 samples)
	minimum = 6 (1 samples)
	maximum = 2020 (1 samples)
Flit latency average = 70.5203 (1 samples)
	minimum = 6 (1 samples)
	maximum = 2016 (1 samples)
Fragmentation average = 4.02773 (1 samples)
	minimum = 0 (1 samples)
	maximum = 1421 (1 samples)
Injected packet rate average = 0.0156668 (1 samples)
	minimum = 0 (1 samples)
	maximum = 0.0248356 (1 samples)
Accepted packet rate average = 0.0156668 (1 samples)
	minimum = 0 (1 samples)
	maximum = 0.0248356 (1 samples)
Injected flit rate average = 0.0470004 (1 samples)
	minimum = 0 (1 samples)
[...]
MSHR contents

Cache L2_bank_005:
MSHR contents

In Dram Latency Queue (total = 0): 
DRAM[2]: 16 bks, busW=4 BL=8 CL=12, tRRD=6 tCCD=2, tRCD=12 tRAS=28 tRP=12 tRC=40
n_cmd=190936 n_nop=136449 n_act=2511 n_pre=2495 n_ref_event=0 n_req=12594 n_rd=10624 n_rd_L2_A=18400 n_write=18402 n_wr_bk=2920 bw_util=0.5274
n_activity=112741 dram_eff=0.8931
bk0: 2460a 107413i bk1: 2460a 105335i bk2: 1964a 109727i bk3: 1964a 109910i bk4: 1492a 122255i bk5: 1492a 121060i bk6: 1584a 119759i bk7: 1584a 119863i bk8: 2120a 115808i bk9: 2120a 113274i bk10: 1752a 117585i bk11: 1752a 116758i bk12: 1564a 122894i bk13: 1564a 123516i bk14: 1576a 128698i bk15: 1576a 128779i 

------------------------------------------------------------------------

Row_Buffer_Locality = 0.800619
Row_Buffer_Locality_read = 0.890022
Row_Buffer_Locality_write = 0.679093
Bank_Level_Parallism = 10.597206
Bank_Level_Parallism_Col = 10.280785
Bank_Level_Parallism_Ready = 5.770609
write_to_read_ratio_blp_rw_average = 0.456826
GrpLevelPara = 1.000000 

BW Util details:
bwutil = 0.527360 
total_CMD = 190936 
util_bw = 100692 
Wasted_Col = 10714 
Wasted_Row = 482 
Idle = 79048 

BW Util Bottlenecks: 
RCDc_limit = 1259 
RCDWRc_limit = 1516 
WTRc_limit = 46058 
RTWc_limit = 46609 
CCDLc_limit = 0 
rwq = 0 
CCDLc_limit_alone = 0 
WTRc_limit_alone = 46058 
RTWc_limit_alone = 46609 

Commands details: 
total_CMD = 190936 
n_nop = 136449 
Read = 10624 
Write = 18402 
L2_Alloc = 18400 
L2_WB = 2920 
n_act = 2511 
n_pre = 2495 
n_ref = 0 
n_req = 12594 
total_req = 50346 

Dual Bus Interface Util: 
issued_total_row = 5006 
issued_total_col = 50346 
Row_Bus_Util =  0.026218 
CoL_Bus_Util = 0.263680 
Either_Row_CoL_Bus_Util = 0.285368 
Issued_on_Two_Bus_Simul_Util = 0.004530 
issued_two_Eff = 0.015875 
queue_avg = 32.725555 


dram_util_bins: 0 0 0 0 0 0 0 0 0 0
dram_eff_bins: 0 0 0 0 0 0 0 0 0 0
mrqq: max=64 avg=32.7256
Memory Partition 3: 
Cache L2_bank_006:
MSHR contents

Cache L2_bank_007:
MSHR contents

In Dram Latency Queue (total = 0): 
DRAM[3]: 16 bks, busW=4 BL=8 CL=12, tRRD=6 tCCD=2, tRCD=12 tRAS=28 tRP=12 tRC=40
n_cmd=190936 n_nop=136519 n_act=2525 n_pre=2509 n_ref_event=0 n_req=12575 n_rd=10552 n_rd_L2_A=18424 n_write=18423 n_wr_bk=2880 bw_util=0.5267
n_activity=112476 dram_eff=0.894
bk0: 2428a 106764i bk1: 2428a 105423i bk2: 2004a 111649i bk3: 2004a 110677i bk4: 1488a 123044i bk5: 1488a 122088i bk6: 1540a 121375i bk7: 1540a 120388i bk8: 2108a 117177i bk9: 2108a 115280i bk10: 1760a 118724i bk11: 1760a 119672i bk12: 1580a 124043i bk13: 1580a 123440i bk14: 1580a 126463i bk15: 1580a 126414i 

------------------------------------------------------------------------

Row_Buffer_Locality = 0.799205
Row_Buffer_Locality_read = 0.887907
Row_Buffer_Locality_write = 0.678672
Bank_Level_Parallism = 10.514286
Bank_Level_Parallism_Col = 10.186372
Bank_Level_Parallism_Ready = 5.701701
write_to_read_ratio_blp_rw_average = 0.459532
GrpLevelPara = 1.000000 

BW Util details:
bwutil = 0.526658 
total_CMD = 190936 
util_bw = 100558 
Wasted_Col = 10837 
Wasted_Row = 420 
Idle = 79121 

BW Util Bottlenecks: 
RCDc_limit = 1127 
RCDWRc_limit = 1522 
WTRc_limit = 45586 
RTWc_limit = 46860 
CCDLc_limit = 0 
rwq = 0 
CCDLc_limit_alone = 0 
WTRc_limit_alone = 45586 
RTWc_limit_alone = 46860 

Commands details: 
total_CMD = 190936 
n_nop = 136519 
Read = 10552 
Write = 18423 
L2_Alloc = 18424 
L2_WB = 2880 
n_act = 2525 
n_pre = 2509 
n_ref = 0 
n_req = 12575 
total_req = 50279 

Dual Bus Interface Util: 
issued_total_row = 5034 
issued_total_col = 50279 
Row_Bus_Util =  0.026365 
CoL_Bus_Util = 0.263329 
Either_Row_CoL_Bus_Util = 0.285001 
Issued_on_Two_Bus_Simul_Util = 0.004693 
issued_two_Eff = 0.016465 
queue_avg = 32.788940 


dram_util_bins: 0 0 0 0 0 0 0 0 0 0
dram_eff_bins: 0 0 0 0 0 0 0 0 0 0
mrqq: max=64 avg=32.7889
Memory Partition 4: 
Cache L2_bank_008:
MSHR contents

Cache L2_bank_009:
MSHR contents

In Dram Latency Queue (total = 0): 
DRAM[4]: 16 bks, busW=4 BL=8 CL=12, tRRD=6 tCCD=2, tRCD=12 tRAS=28 tRP=12 tRC=40
n_cmd=190936 n_nop=136399 n_act=2527 n_pre=2511 n_ref_event=0 n_req=12589 n_rd=10720 n_rd_L2_A=18344 n_write=18339 n_wr_bk=2944 bw_util=0.5274
n_activity=112447 dram_eff=0.8955
bk0: 2492a 106976i bk1: 2492a 105711i bk2: 1968a 111561i bk3: 1968a 111122i bk4: 1536a 120204i bk5: 1536a 118724i bk6: 1572a 119860i bk7: 1572a 119042i bk8: 2116a 114827i bk9: 2116a 113734i bk10: 1756a 117628i bk11: 1756a 117249i bk12: 1528a 125551i bk13: 1528a 123945i bk14: 1564a 129385i bk15: 1564a 128370i 

------------------------------------------------------------------------

Row_Buffer_Locality = 0.799269
Row_Buffer_Locality_read = 0.881365
Row_Buffer_Locality_write = 0.687206
Bank_Level_Parallism = 10.591389
Bank_Level_Parallism_Col = 10.263260
Bank_Level_Parallism_Ready = 5.731528
write_to_read_ratio_blp_rw_average = 0.464338
GrpLevelPara = 1.000000 

BW Util details:
bwutil = 0.527370 
total_CMD = 190936 
util_bw = 100694 
Wasted_Col = 10698 
Wasted_Row = 424 
Idle = 79120 

BW Util Bottlenecks: 
RCDc_limit = 1216 
RCDWRc_limit = 1442 
WTRc_limit = 45141 
RTWc_limit = 47377 
CCDLc_limit = 0 
rwq = 0 
CCDLc_limit_alone = 0 
WTRc_limit_alone = 45141 
RTWc_limit_alone = 47377 

Commands details: 
total_CMD = 190936 
n_nop = 136399 
Read = 10720 
Write = 18339 
L2_Alloc = 18344 
L2_WB = 2944 
n_act = 2527 
n_pre = 2511 
n_ref = 0 
n_req = 12589 
total_req = 50347 

Dual Bus Interface Util: 
issued_total_row = 5038 
issued_total_col = 50347 
Row_Bus_Util =  0.026386 
CoL_Bus_Util = 0.263685 
Either_Row_CoL_Bus_Util = 0.285630 
Issued_on_Two_Bus_Simul_Util = 0.004441 
issued_two_Eff = 0.015549 
queue_avg = 32.253242 


dram_util_bins: 0 0 0 0 0 0 0 0 0 0
dram_eff_bins: 0 0 0 0 0 0 0 0 0 0
mrqq: max=64 avg=32.2532
Memory Partition 5: 
Cache L2_bank_010:
MSHR contents

Cache L2_bank_011:
MSHR contents

In Dram Latency Queue (total = 0): 
DRAM[5]: 16 bks, busW=4 BL=8 CL=12, tRRD=6 tCCD=2, tRCD=12 tRAS=28 tRP=12 tRC=40
n_cmd=190936 n_nop=136293 n_act=2576 n_pre=2560 n_ref_event=0 n_req=12610 n_rd=10592 n_rd_L2_A=18468 n_write=18464 n_wr_bk=2904 bw_util=0.5282
n_activity=112731 dram_eff=0.8947
bk0: 2456a 108613i bk1: 2456a 107403i bk2: 1944a 111991i bk3: 1948a 111104i bk4: 1560a 119951i bk5: 1560a 120569i bk6: 1576a 122353i bk7: 1576a 121338i bk8: 2088a 115268i bk9: 2088a 114295i bk10: 1756a 119895i bk11: 1756a 118263i bk12: 1576a 124398i bk13: 1576a 123613i bk14: 1572a 125218i bk15: 1572a 124295i 

------------------------------------------------------------------------

Row_Buffer_Locality = 0.795718
Row_Buffer_Locality_read = 0.887130
Row_Buffer_Locality_write = 0.671469
Bank_Level_Parallism = 10.529160
Bank_Level_Parallism_Col = 10.186959
Bank_Level_Parallism_Ready = 5.686433
write_to_read_ratio_blp_rw_average = 0.461827
GrpLevelPara = 1.000000 

BW Util details:
bwutil = 0.528219 
total_CMD = 190936 
util_bw = 100856 
Wasted_Col = 10798 
Wasted_Row = 392 
Idle = 78890 

BW Util Bottlenecks: 
RCDc_limit = 1127 
RCDWRc_limit = 1435 
WTRc_limit = 45270 
RTWc_limit = 46511 
CCDLc_limit = 0 
rwq = 0 
CCDLc_limit_alone = 0 
WTRc_limit_alone = 45270 
RTWc_limit_alone = 46511 

Commands details: 
total_CMD = 190936 
n_nop = 136293 
Read = 10592 
Write = 18464 
L2_Alloc = 18468 
L2_WB = 2904 
n_act = 2576 
n_pre = 2560 
n_ref = 0 
n_req = 12610 
total_req = 50428 

Dual Bus Interface Util: 
issued_total_row = 5136 
issued_total_col = 50428 
Row_Bus_Util =  0.026899 
CoL_Bus_Util = 0.264109 
Either_Row_CoL_Bus_Util = 0.286185 
Issued_on_Two_Bus_Simul_Util = 0.004824 
issued_two_Eff = 0.016855 
queue_avg = 32.255322 


dram_util_bins: 0 0 0 0 0 0 0 0 0 0
dram_eff_bins: 0 0 0 0 0 0 0 0 0 0
mrqq: max=64 avg=32.2553
Memory Partition 6: 
Cache L2_bank_012:
MSHR contents

Cache L2_bank_013:
MSHR contents

In Dram Latency Queue (total = 0): 
DRAM[6]: 16 bks, busW=4 BL=8 CL=12, tRRD=6 tCCD=2, tRCD=12 tRAS=28 tRP=12 tRC=40
n_cmd=190936 n_nop=136429 n_act=2603 n_pre=2587 n_ref_event=0 n_req=12582 n_rd=10604 n_rd_L2_A=18396 n_write=18393 n_wr_bk=2920 bw_util=0.527
n_activity=112423 dram_eff=0.8951
bk0: 2460a 104910i bk1: 2460a 103123i bk2: 1940a 108828i bk3: 1940a 108079i bk4: 1548a 116102i bk5: 1548a 116066i bk6: 1584a 120027i bk7: 1584a 120222i bk8: 2112a 115248i bk9: 2112a 113741i bk10: 1760a 116705i bk11: 1760a 115934i bk12: 1532a 121723i bk13: 1532a 121105i bk14: 1564a 126510i bk15: 1564a 126317i 

------------------------------------------------------------------------

Row_Buffer_Locality = 0.793117
Row_Buffer_Locality_read = 0.880966
Row_Buffer_Locality_write = 0.673668
Bank_Level_Parallism = 10.864729
Bank_Level_Parallism_Col = 10.535565
Bank_Level_Parallism_Ready = 5.902401
write_to_read_ratio_blp_rw_average = 0.460408
GrpLevelPara = 1.000000 

BW Util details:
bwutil = 0.527014 
total_CMD = 190936 
util_bw = 100626 
Wasted_Col = 10534 
Wasted_Row = 540 
Idle = 79236 

BW Util Bottlenecks: 
RCDc_limit = 1375 
RCDWRc_limit = 1346 
WTRc_limit = 44913 
RTWc_limit = 46699 
CCDLc_limit = 0 
rwq = 0 
CCDLc_limit_alone = 0 
WTRc_limit_alone = 44913 
RTWc_limit_alone = 46699 

Commands details: 
total_CMD = 190936 
n_nop = 136429 
Read = 10604 
Write = 18393 
L2_Alloc = 18396 
L2_WB = 2920 
n_act = 2603 
n_pre = 2587 
n_ref = 0 
n_req = 12582 
total_req = 50313 

Dual Bus Interface Util: 
issued_total_row = 5190 
issued_total_col = 50313 
Row_Bus_Util =  0.027182 
CoL_Bus_Util = 0.263507 
Either_Row_CoL_Bus_Util = 0.285473 
Issued_on_Two_Bus_Simul_Util = 0.005216 
issued_two_Eff = 0.018273 
queue_avg = 33.692184 


dram_util_bins: 0 0 0 0 0 0 0 0 0 0
dram_eff_bins: 0 0 0 0 0 0 0 0 0 0
mrqq: max=64 avg=33.6922
Memory Partition 7: 
Cache L2_bank_014:
MSHR contents

Cache L2_bank_015:
MSHR contents

In Dram Latency Queue (total = 0): 
DRAM[7]: 16 bks, busW=4 BL=8 CL=12, tRRD=6 tCCD=2, tRCD=12 tRAS=28 tRP=12 tRC=40
n_cmd=190936 n_nop=136854 n_act=2461 n_pre=2445 n_ref_event=0 n_req=12536 n_rd=10304 n_rd_L2_A=18504 n_write=18504 n_wr_bk=2808 bw_util=0.525
n_activity=111693 dram_eff=0.8975
bk0: 2432a 106992i bk1: 2432a 105672i bk2: 1944a 110163i bk3: 1944a 109984i bk4: 1520a 117641i bk5: 1520a 117846i bk6: 1560a 116429i bk7: 1560a 116545i bk8: 2088a 111765i bk9: 2088a 110404i bk10: 1776a 117256i bk11: 1776a 116749i bk12: 1536a 122006i bk13: 1536a 122541i bk14: 1548a 124708i bk15: 1548a 124703i 

------------------------------------------------------------------------

Row_Buffer_Locality = 0.803685
Row_Buffer_Locality_read = 0.898223
Row_Buffer_Locality_write = 0.676040
Bank_Level_Parallism = 10.963909
Bank_Level_Parallism_Col = 10.640187
Bank_Level_Parallism_Ready = 5.961844
write_to_read_ratio_blp_rw_average = 0.461886
GrpLevelPara = 1.000000 

BW Util details:
bwutil = 0.524993 
total_CMD = 190936 
util_bw = 100240 
Wasted_Col = 10318 
Wasted_Row = 424 
Idle = 79954 

BW Util Bottlenecks: 
RCDc_limit = 1074 
RCDWRc_limit = 1308 
WTRc_limit = 45066 
RTWc_limit = 46945 
CCDLc_limit = 0 
rwq = 0 
CCDLc_limit_alone = 0 
WTRc_limit_alone = 45066 
RTWc_limit_alone = 46945 

Commands details: 
total_CMD = 190936 
n_nop = 136854 
Read = 10304 
Write = 18504 
L2_Alloc = 18504 
L2_WB = 2808 
n_act = 2461 
n_pre = 2445 
n_ref = 0 
n_req = 12536 
total_req = 50120 

Dual Bus Interface Util: 
issued_total_row = 4906 
issued_total_col = 50120 
Row_Bus_Util =  0.025694 
CoL_Bus_Util = 0.262496 
Either_Row_CoL_Bus_Util = 0.283247 
Issued_on_Two_Bus_Simul_Util = 0.004944 
issued_two_Eff = 0.017455 
queue_avg = 33.503803 


dram_util_bins: 0 0 0 0 0 0 0 0 0 0
dram_eff_bins: 0 0 0 0 0 0 0 0 0 0
mrqq: max=64 avg=33.5038

========= L2 cache stats =========
L2_cache_bank[0]: Access = 6036, Miss = 3621, Miss_rate = 0.600, Pending_hits = 31, Reservation_fails = 79
L2_cache_bank[1]: Access = 6036, Miss = 3623, Miss_rate = 0.600, Pending_hits = 22, Reservation_fails = 103
L2_cache_bank[2]: Access = 6036, Miss = 3615, Miss_rate = 0.599, Pending_hits = 9, Reservation_fails = 80
L2_cache_bank[3]: Access = 6036, Miss = 3615, Miss_rate = 0.599, Pending_hits = 20, Reservation_fails = 89
L2_cache_bank[4]: Access = 6036, Miss = 3628, Miss_rate = 0.601, Pending_hits = 25, Reservation_fails = 80
L2_cache_bank[5]: Access = 6036, Miss = 3628, Miss_rate = 0.601, Pending_hits = 4, Reservation_fails = 82
L2_cache_bank[6]: Access = 6016, Miss = 3622, Miss_rate = 0.602, Pending_hits = 2, Reservation_fails = 75
L2_cache_bank[7]: Access = 6016, Miss = 3622, Miss_rate = 0.602, Pending_hits = 3, Reservation_fails = 78
L2_cache_bank[8]: Access = 6016, Miss = 3633, Miss_rate = 0.604, Pending_hits = 0, Reservation_fails = 63
L2_cache_bank[9]: Access = 6016, Miss = 3633, Miss_rate = 0.604, Pending_hits = 1, Reservation_fails = 73
L2_cache_bank[10]: Access = 6016, Miss = 3632, Miss_rate = 0.604, Pending_hits = 1, Reservation_fails = 66
L2_cache_bank[11]: Access = 6016, Miss = 3633, Miss_rate = 0.604, Pending_hits = 1, Reservation_fails = 62
L2_cache_bank[12]: Access = 6016, Miss = 3625, Miss_rate = 0.603, Pending_hits = 2, Reservation_fails = 71
L2_cache_bank[13]: Access = 6016, Miss = 3625, Miss_rate = 0.603, Pending_hits = 1, Reservation_fails = 75
L2_cache_bank[14]: Access = 6016, Miss = 3601, Miss_rate = 0.599, Pending_hits = 1, Reservation_fails = 59
L2_cache_bank[15]: Access = 6016, Miss = 3601, Miss_rate = 0.599, Pending_hits = 5, Reservation_fails = 68
L2_total_cache_accesses = 96376
L2_total_cache_misses = 57957
L2_total_cache_miss_rate = 0.6014
L2_total_cache_pending_hits = 128
L2_total_cache_reservation_fails = 1203
L2_total_cache_breakdown:
	L2_cache_stats_breakdown[GLOBAL_ACC_R][HIT] = 30098
	L2_cache_stats_breakdown[GLOBAL_ACC_R][HIT_RESERVED] = 0
	L2_cache_stats_breakdown[GLOBAL_ACC_R][MISS] = 21102
	L2_cache_stats_breakdown[GLOBAL_ACC_R][RESERVATION_FAIL] = 155
	L2_cache_stats_breakdown[GLOBAL_ACC_R][SECTOR_MISS] = 0
	L2_cache_stats_breakdown[GLOBAL_ACC_R][MSHR_HIT] = 0
	L2_cache_stats_breakdown[LOCAL_ACC_R][HIT] = 0
	L2_cache_stats_breakdown[LOCAL_ACC_R][HIT_RESERVED] = 0
	L2_cache_stats_breakdown[LOCAL_ACC_R][MISS] = 0
	L2_cache_stats_breakdown[LOCAL_ACC_R][RESERVATION_FAIL] = 0
	L2_cache_stats_breakdown[LOCAL_ACC_R][SECTOR_MISS] = 0
	L2_cache_stats_breakdown[LOCAL_ACC_R][MSHR_HIT] = 0
	L2_cache_stats_breakdown[CONST_ACC_R][HIT] = 0
	L2_cache_stats_breakdown[CONST_ACC_R][HIT_RESERVED] = 0
	L2_cache_stats_breakdown[CONST_ACC_R][MISS] = 0
	L2_cache_stats_breakdown[CONST_ACC_R][RESERVATION_FAIL] = 0
	L2_cache_stats_breakdown[CONST_ACC_R][SECTOR_MISS] = 0
	L2_cache_stats_breakdown[CONST_ACC_R][MSHR_HIT] = 0
	L2_cache_stats_breakdown[TEXTURE_ACC_R][HIT] = 0
	L2_cache_stats_breakdown[TEXTURE_ACC_R][HIT_RESERVED] = 0
	L2_cache_stats_breakdown[TEXTURE_ACC_R][MISS] = 0
	L2_cache_stats_breakdown[TEXTURE_ACC_R][RESERVATION_FAIL] = 0
	L2_cache_stats_breakdown[TEXTURE_ACC_R][SECTOR_MISS] = 0
	L2_cache_stats_breakdown[TEXTURE_ACC_R][MSHR_HIT] = 0
	L2_cache_stats_breakdown[GLOBAL_ACC_W][HIT] = 8159
	L2_cache_stats_breakdown[GLOBAL_ACC_W][HIT_RESERVED] = 48
	L2_cache_stats_breakdown[GLOBAL_ACC_W][MISS] = 36849
	L2_cache_stats_breakdown[GLOBAL_ACC_W][RESERVATION_FAIL] = 1048
	L2_cache_stats_breakdown[GLOBAL_ACC_W][SECTOR_MISS] = 0
	L2_cache_stats_breakdown[GLOBAL_ACC_W][MSHR_HIT] = 0
	L2_cache_stats_breakdown[LOCAL_ACC_W][HIT] = 0
	L2_cache_stats_breakdown[LOCAL_ACC_W][HIT_RESERVED] = 0
	L2_cache_stats_breakdown[LOCAL_ACC_W][MISS] = 0
	L2_cache_stats_breakdown[LOCAL_ACC_W][RESERVATION_FAIL] = 0
	L2_cache_stats_breakdown[LOCAL_ACC_W][SECTOR_MISS] = 0
	L2_cache_stats_breakdown[LOCAL_ACC_W][MSHR_HIT] = 0
	L2_cache_stats_breakdown[L1_WRBK_ACC][HIT] = 0
	L2_cache_stats_breakdown[L1_WRBK_ACC][HIT_RESERVED] = 0
	L2_cache_stats_breakdown[L1_WRBK_ACC][MISS] = 0
	L2_cache_stats_breakdown[L1_WRBK_ACC][RESERVATION_FAIL] = 0
	L2_cache_stats_breakdown[L1_WRBK_ACC][SECTOR_MISS] = 0
	L2_cache_stats_breakdown[L1_WRBK_ACC][MSHR_HIT] = 0
	L2_cache_stats_breakdown[L2_WRBK_ACC][HIT] = 0
	L2_cache_stats_breakdown[L2_WRBK_ACC][HIT_RESERVED] = 0
	L2_cache_stats_breakdown[L2_WRBK_ACC][MISS] = 0
	L2_cache_stats_breakdown[L2_WRBK_ACC][RESERVATION_FAIL] = 0
	L2_cache_stats_breakdown[L2_WRBK_ACC][SECTOR_MISS] = 0
	L2_cache_stats_breakdown[L2_WRBK_ACC][MSHR_HIT] = 0
	L2_cache_stats_breakdown[INST_ACC_R][HIT] = 34
	L2_cache_stats_breakdown[INST_ACC_R][HIT_RESERVED] = 80
	L2_cache_stats_breakdown[INST_ACC_R][MISS] = 6
	L2_cache_stats_breakdown[INST_ACC_R][RESERVATION_FAIL] = 0
	L2_cache_stats_breakdown[INST_ACC_R][SECTOR_MISS] = 0
	L2_cache_stats_breakdown[INST_ACC_R][MSHR_HIT] = 80
	L2_cache_stats_breakdown[L1_WR_ALLOC_R][HIT] = 0
	L2_cache_stats_breakdown[L1_WR_ALLOC_R][HIT_RESERVED] = 0
	L2_cache_stats_breakdown[L1_WR_ALLOC_R][MISS] = 0
	L2_cache_stats_breakdown[L1_WR_ALLOC_R][RESERVATION_FAIL] = 0
	L2_cache_stats_breakdown[L1_WR_ALLOC_R][SECTOR_MISS] = 0
	L2_cache_stats_breakdown[L1_WR_ALLOC_R][MSHR_HIT] = 0
	L2_cache_stats_breakdown[L2_WR_ALLOC_R][HIT] = 0
	L2_cache_stats_breakdown[L2_WR_ALLOC_R][HIT_RESERVED] = 0
	L2_cache_stats_breakdown[L2_WR_ALLOC_R][MISS] = 0
	L2_cache_stats_breakdown[L2_WR_ALLOC_R][RESERVATION_FAIL] = 0
	L2_cache_stats_breakdown[L2_WR_ALLOC_R][SECTOR_MISS] = 0
	L2_cache_stats_breakdown[L2_WR_ALLOC_R][MSHR_HIT] = 48
	L2_cache_stats_breakdown[GLOBAL_ACC_R][TOTAL_ACCESS] = 51200
	L2_cache_stats_breakdown[GLOBAL_ACC_W][TOTAL_ACCESS] = 45056
	L2_cache_stats_breakdown[INST_ACC_R][TOTAL_ACCESS] = 120
L2_total_cache_reservation_fail_breakdown:
	L2_cache_stats_fail_breakdown[GLOBAL_ACC_R][MISS_QUEUE_FULL] = 155
	L2_cache_stats_fail_breakdown[GLOBAL_ACC_W][MISS_QUEUE_FULL] = 1048
L2_cache_data_port_util = 0.090
L2_cache_fill_port_util = 0.130

icnt_total_pkts_mem_to_simt=301656
icnt_total_pkts_simt_to_mem=275832
LD_mem_lat_dist  0 0 0 0 0 0 0 0 0 0 0 0 0 0 0 0 0 0 0 0 0 0 0 0 0 0 0
ST_mem_lat_dist  0 0 0 0 0 0 0 0 0 0 0 0 0 0 0 0 0 0 0 0 0 0 0 0 0 0 0
----------------------------Interconnect-DETAILS--------------------------------
Class 0:
Packet latency average = 91.8089
	minimum = 6
	maximum = 2171
Network latency average = 57.7385
	minimum = 6
	maximum = 2020
Slowest packet = 1144
Flit latency average = 42.9059
	minimum = 6
	maximum = 2016
Slowest flit = 83570
Fragmentation average = 1.49295
	minimum = 0
	maximum = 1421
Injected packet rate average = 0.0187451
	minimum = 0 (at node 36)
	maximum = 0.02935 (at node 20)
Accepted packet rate average = 0.0187451
	minimum = 0 (at node 36)
	maximum = 0.02935 (at node 20)
Injected flit rate average = 0.0561606
	minimum = 0 (at node 36)
	maximum = 0.0919788 (at node 20)
Accepted flit rate average= 0.0561606
	minimum = 0 (at node 36)
	maximum = 0.0838877 (at node 20)
Injected packet length average = 2.99602
Accepted packet length average = 2.99602
Total in-flight flits = 0 (0 measured)
====== Overall Traffic Statistics ======
====== Traffic class 0 ======
Packet latency average = 83.3834 (6 samples)
	minimum = 6 (6 samples)
	maximum = 2171 (6 samples)
Network latency average = 55.096 (6 samples)
	minimum = 6 (6 samples)
	maximum = 2020 (6 samples)
Flit latency average = 51.7039 (6 samples)
	minimum = 6 (6 samples)
	maximum = 2016 (6 samples)
Fragmentation average = 2.31715 (6 samples)
	minimum = 0 (6 samples)
	maximum = 1421 (6 samples)
Injected packet rate average = 0.0213386 (6 samples)
	minimum = 0 (6 samples)
	maximum = 0.0335457 (6 samples)
Accepted packet rate average = 0.0213386 (6 samples)
	minimum = 0 (6 samples)
	maximum = 0.0335457 (6 samples)
Injected flit rate average = 0.0640033 (6 samples)
	minimum = 0 (6 samples)
	maximum = 0.116374 (6 samples)
Accepted flit rate average = 0.0640033 (6 samples)
	minimum = 0 (6 samples)
	maximum = 0.122794 (6 samples)
Injected packet size average = 2.99942 (6 samples)
Accepted packet size average = 2.99942 (6 samples)
Hops average = 1 (6 samples)
----------------------------END-of-Interconnect-DETAILS-------------------------


gpgpu_simulation_time = 0 days, 0 hrs, 1 min, 10 sec (70 sec)
gpgpu_simulation_rate = 588481 (inst/sec)
gpgpu_simulation_rate = 1593 (cycle/sec)
gpgpu_silicon_slowdown = 1008788x
GPGPU-Sim: *** simulation thread exiting ***
GPGPU-Sim: *** exit detected ***
