GPGPU-Sim version 4.2.0 (build gpgpu-sim_git-commit-13c67115070dc2f0876254a790d0238073ca364a-modified_590.0) configured with AccelWattch.

----------------------------------------------------------------------------
INFO - If you only care about PTX execution, ignore this message. GPGPU-Sim supports PTX execution in modern CUDA.
If you want to run PTXPLUS (sm_1x SASS) with a modern card configuration - set the envronment variable
$PTXAS_CUDA_INSTALL_PATH to point a CUDA version compabible with your card configurations (i.e. 8+ for PASCAL, 9+ for VOLTA etc..)
For example: "export $PTXAS_CUDA_INSTALL_PATH=/usr/local/cuda-9.1"

The following text describes why:
If you are using PTXPLUS, only sm_1x is supported and it requires that the app and simulator binaries are compiled in CUDA 4.2 or less.
The simulator requires it since CUDA headers desribe struct sizes in the exec which change from gen to gen.
The apps require 4.2 because new versions of CUDA tools have dropped parsing support for generating sm_1x
When running using modern config (i.e. volta) and PTXPLUS with CUDA 4.2, the $PTXAS_CUDA_INSTALL_PATH env variable is required to get proper register usage
(and hence occupancy) using a version of CUDA that knows the register usage on the real card.

----------------------------------------------------------------------------
setup_environment succeeded


        *** GPGPU-Sim Simulator Version 4.2.0  [build gpgpu-sim_git-commit-13c67115070dc2f0876254a790d0238073ca364a_modified_0.0] ***


GPGPU-Sim PTX: simulation mode 0 (can change with PTX_SIM_MODE_FUNC environment variable:
               1=functional simulation only, 0=detailed performance simulator)
GPGPU-Sim PTX: overriding embedded ptx with ptx file (PTX_SIM_USE_PTX_FILE is set)
GPGPU-Sim: Configuration options:

-save_embedded_ptx                      0 # saves ptx files embedded in binary as <n>.ptx
-keep                                   0 # keep intermediate files created by GPGPU-Sim when interfacing with external programs
-gpgpu_ptx_save_converted_ptxplus                    0 # Saved converted ptxplus to a file
-gpgpu_occupancy_sm_number                   60 # The SM number to pass to ptxas when getting register usage for computing GPU occupancy. This parameter is required in the config.
-ptx_opcode_latency_int         4,13,4,5,145 # Opcode latencies for integers <ADD,MAX,MUL,MAD,DIV,SHFL>Default 1,1,19,25,145,32
-ptx_opcode_latency_fp          4,13,4,5,39 # Opcode latencies for single precision floating points <ADD,MAX,MUL,MAD,DIV>Default 1,1,1,1,30
-ptx_opcode_latency_dp         8,19,8,8,330 # Opcode latencies for double precision floating points <ADD,MAX,MUL,MAD,DIV>Default 8,8,8,8,335
-ptx_opcode_latency_sfu                    8 # Opcode latencies for SFU instructionsDefault 8
-ptx_opcode_latency_tesnor                   64 # Opcode latencies for Tensor instructionsDefault 64
-ptx_opcode_initiation_int            1,2,2,2,8 # Opcode initiation intervals for integers <ADD,MAX,MUL,MAD,DIV,SHFL>Default 1,1,4,4,32,4
-ptx_opcode_initiation_fp            1,2,1,1,4 # Opcode initiation intervals for single precision floating points <ADD,MAX,MUL,MAD,DIV>Default 1,1,1,1,5
-ptx_opcode_initiation_dp          1,2,1,1,130 # Opcode initiation intervals for double precision floating points <ADD,MAX,MUL,MAD,DIV>Default 8,8,8,8,130
-ptx_opcode_initiation_sfu                    8 # Opcode initiation intervals for sfu instructionsDefault 8
-ptx_opcode_initiation_tensor                   64 # Opcode initiation intervals for tensor instructionsDefault 64
-cdp_latency         7200,8000,100,12000,1600 # CDP API latency <cudaStreamCreateWithFlags, cudaGetParameterBufferV2_init_perWarp, cudaGetParameterBufferV2_perKernel, cudaLaunchDeviceV2_init_perWarp, cudaLaunchDevicV2_perKernel>Default 7200,8000,100,12000,1600
-network_mode                           1 # Interconnection network mode
-inter_config_file   config_fermi_islip.icnt # Interconnection network config file
-icnt_in_buffer_limit                   64 # in_buffer_limit
-icnt_out_buffer_limit                   64 # out_buffer_limit
-icnt_subnets                           2 # subnets
-icnt_arbiter_algo                      1 # arbiter_algo
-icnt_verbose                           0 # inct_verbose
-icnt_grant_cycles                      1 # grant_cycles
-gpgpu_ptx_use_cuobjdump                    1 # Use cuobjdump to extract ptx and sass from binaries
-gpgpu_experimental_lib_support                    0 # Try to extract code from cuda libraries [Broken because of unknown cudaGetExportTable]
-checkpoint_option                      0 #  checkpointing flag (0 = no checkpoint)
-checkpoint_kernel                      1 #  checkpointing during execution of which kernel (1- 1st kernel)
-checkpoint_CTA                         0 #  checkpointing after # of CTA (< less than total CTA)
-resume_option                          0 #  resume flag (0 = no resume)
-resume_kernel                          0 #  Resume from which kernel (1= 1st kernel)
-resume_CTA                             0 #  resume from which CTA 
-checkpoint_CTA_t                       0 #  resume from which CTA 
-checkpoint_insn_Y                      0 #  resume from which CTA 
-gpgpu_ptx_convert_to_ptxplus                    0 # Convert SASS (native ISA) to ptxplus and run ptxplus
-gpgpu_ptx_force_max_capability                   60 # Force maximum compute capability
-gpgpu_ptx_inst_debug_to_file                    0 # Dump executed instructions' debug information to file
-gpgpu_ptx_inst_debug_file       inst_debug.txt # Executed instructions' debug output file
-gpgpu_ptx_inst_debug_thread_uid                    1 # Thread UID for executed instructions' debug output
-gpgpu_simd_model                       1 # 1 = post-dominator
-gpgpu_shader_core_pipeline              2048:32 # shader core pipeline config, i.e., {<nthread>:<warpsize>}
-gpgpu_tex_cache:l1  N:16:128:24,L:R:m:N:L,F:128:4,128:2 # per-shader L1 texture cache  (READ-ONLY) config  {<nsets>:<bsize>:<assoc>,<rep>:<wr>:<alloc>:<wr_alloc>,<mshr>:<N>:<merge>,<mq>:<rf>}
-gpgpu_const_cache:l1 N:128:64:2,L:R:f:N:L,A:2:64,4 # per-shader L1 constant memory cache  (READ-ONLY) config  {<nsets>:<bsize>:<assoc>,<rep>:<wr>:<alloc>:<wr_alloc>,<mshr>:<N>:<merge>,<mq>} 
-gpgpu_cache:il1     N:8:128:4,L:R:f:N:L,A:2:48,4 # shader L1 instruction cache config  {<nsets>:<bsize>:<assoc>,<rep>:<wr>:<alloc>:<wr_alloc>,<mshr>:<N>:<merge>,<mq>} 
-gpgpu_cache:dl1     N:64:128:6,L:L:m:N:H,A:128:8,8 # per-shader L1 data cache config  {<nsets>:<bsize>:<assoc>,<rep>:<wr>:<alloc>:<wr_alloc>,<mshr>:<N>:<merge>,<mq> | none}
-gpgpu_l1_cache_write_ratio                    0 # L1D write ratio
-gpgpu_l1_banks                         1 # The number of L1 cache banks
-gpgpu_l1_banks_byte_interleaving                   32 # l1 banks byte interleaving granularity
-gpgpu_l1_banks_hashing_function                    0 # l1 banks hashing function
-gpgpu_l1_latency                       1 # L1 Hit Latency
-gpgpu_smem_latency                     3 # smem Latency
-gpgpu_cache:dl1PrefL1                 none # per-shader L1 data cache config  {<nsets>:<bsize>:<assoc>,<rep>:<wr>:<alloc>:<wr_alloc>,<mshr>:<N>:<merge>,<mq> | none}
-gpgpu_cache:dl1PrefShared                 none # per-shader L1 data cache config  {<nsets>:<bsize>:<assoc>,<rep>:<wr>:<alloc>:<wr_alloc>,<mshr>:<N>:<merge>,<mq> | none}
-gpgpu_gmem_skip_L1D                    1 # global memory access skip L1D cache (implements -Xptxas -dlcm=cg, default=no skip)
-gpgpu_perfect_mem                      0 # enable perfect memory mode (no cache miss)
-n_regfile_gating_group                    4 # group of lanes that should be read/written together)
-gpgpu_clock_gated_reg_file                    0 # enable clock gated reg file for power calculations
-gpgpu_clock_gated_lanes                    0 # enable clock gated lanes for power calculations
-gpgpu_shader_registers                65536 # Number of registers per shader core. Limits number of concurrent CTAs. (default 8192)
-gpgpu_registers_per_block                 8192 # Maximum number of registers per CTA. (default 8192)
-gpgpu_ignore_resources_limitation                    0 # gpgpu_ignore_resources_limitation (default 0)
-gpgpu_shader_cta                      32 # Maximum number of concurrent CTAs in shader (default 32)
-gpgpu_num_cta_barriers                   16 # Maximum number of named barriers per CTA (default 16)
-gpgpu_n_clusters                      20 # number of processing clusters
-gpgpu_n_cores_per_cluster                    1 # number of simd cores per cluster
-gpgpu_n_cluster_ejection_buffer_size                    8 # number of packets in ejection buffer
-gpgpu_n_ldst_response_buffer_size                    2 # number of response packets in ld/st unit ejection buffer
-gpgpu_shmem_per_block                49152 # Size of shared memory per thread block or CTA (default 48kB)
-gpgpu_shmem_size                   98304 # Size of shared memory per shader core (default 16kB)
-gpgpu_shmem_option                     0 # Option list of shared memory sizes
-gpgpu_unified_l1d_size                    0 # Size of unified data cache(L1D + shared memory) in KB
-gpgpu_adaptive_cache_config                    0 # adaptive_cache_config
-gpgpu_shmem_sizeDefault                16384 # Size of shared memory per shader core (default 16kB)
-gpgpu_shmem_size_PrefL1                16384 # Size of shared memory per shader core (default 16kB)
-gpgpu_shmem_size_PrefShared                16384 # Size of shared memory per shader core (default 16kB)
-gpgpu_shmem_num_banks                   32 # Number of banks in the shared memory in each shader core (default 16)
-gpgpu_shmem_limited_broadcast                    0 # Limit shared memory to do one broadcast per cycle (default on)
-gpgpu_shmem_warp_parts                    1 # Number of portions a warp is divided into for shared memory bank conflict check 
-gpgpu_mem_unit_ports                    1 # The number of memory transactions allowed per core cycle
-gpgpu_shmem_warp_parts                    1 # Number of portions a warp is divided into for shared memory bank conflict check 
-gpgpu_warpdistro_shader                   -1 # Specify which shader core to collect the warp size distribution from
-gpgpu_warp_issue_shader                    0 # Specify which shader core to collect the warp issue distribution from
-gpgpu_local_mem_map                    1 # Mapping from local memory space address to simulated GPU physical address space (default = enabled)
-gpgpu_num_reg_banks                   32 # Number of register banks (default = 8)
-gpgpu_reg_bank_use_warp_id                    0 # Use warp ID in mapping registers to banks (default = off)
-gpgpu_sub_core_model                    0 # Sub Core Volta/Pascal model (default = off)
-gpgpu_enable_specialized_operand_collector                    1 # enable_specialized_operand_collector
-gpgpu_operand_collector_num_units_sp                   20 # number of collector units (default = 4)
-gpgpu_operand_collector_num_units_dp                    0 # number of collector units (default = 0)
-gpgpu_operand_collector_num_units_sfu                    4 # number of collector units (default = 4)
-gpgpu_operand_collector_num_units_int                    0 # number of collector units (default = 0)
-gpgpu_operand_collector_num_units_tensor_core                    4 # number of collector units (default = 4)
-gpgpu_operand_collector_num_units_mem                    8 # number of collector units (default = 2)
-gpgpu_operand_collector_num_units_gen                    0 # number of collector units (default = 0)
-gpgpu_operand_collector_num_in_ports_sp                    4 # number of collector unit in ports (default = 1)
-gpgpu_operand_collector_num_in_ports_dp                    0 # number of collector unit in ports (default = 0)
-gpgpu_operand_collector_num_in_ports_sfu                    1 # number of collector unit in ports (default = 1)
-gpgpu_operand_collector_num_in_ports_int                    0 # number of collector unit in ports (default = 0)
-gpgpu_operand_collector_num_in_ports_tensor_core                    1 # number of collector unit in ports (default = 1)
-gpgpu_operand_collector_num_in_ports_mem                    1 # number of collector unit in ports (default = 1)
-gpgpu_operand_collector_num_in_ports_gen                    0 # number of collector unit in ports (default = 0)
-gpgpu_operand_collector_num_out_ports_sp                    4 # number of collector unit in ports (default = 1)
-gpgpu_operand_collector_num_out_ports_dp                    0 # number of collector unit in ports (default = 0)
-gpgpu_operand_collector_num_out_ports_sfu                    1 # number of collector unit in ports (default = 1)
-gpgpu_operand_collector_num_out_ports_int                    0 # number of collector unit in ports (default = 0)
-gpgpu_operand_collector_num_out_ports_tensor_core                    1 # number of collector unit in ports (default = 1)
-gpgpu_operand_collector_num_out_ports_mem                    1 # number of collector unit in ports (default = 1)
-gpgpu_operand_collector_num_out_ports_gen                    0 # number of collector unit in ports (default = 0)
-gpgpu_coalesce_arch                   13 # Coalescing arch (GT200 = 13, Fermi = 20)
-gpgpu_num_sched_per_core                    2 # Number of warp schedulers per core
-gpgpu_max_insn_issue_per_warp                    2 # Max number of instructions that can be issued per warp in one cycle by scheduler (either 1 or 2)
-gpgpu_dual_issue_diff_exec_units                    1 # should dual issue use two different execution unit resources (Default = 1)
-gpgpu_simt_core_sim_order                    1 # Select the simulation order of cores in a cluster (0=Fix, 1=Round-Robin)
-gpgpu_pipeline_widths 4,0,0,1,1,4,0,0,1,1,6 # Pipeline widths ID_OC_SP,ID_OC_DP,ID_OC_INT,ID_OC_SFU,ID_OC_MEM,OC_EX_SP,OC_EX_DP,OC_EX_INT,OC_EX_SFU,OC_EX_MEM,EX_WB,ID_OC_TENSOR_CORE,OC_EX_TENSOR_CORE
-gpgpu_tensor_core_avail                    0 # Tensor Core Available (default=0)
-gpgpu_num_sp_units                     4 # Number of SP units (default=1)
-gpgpu_num_dp_units                     0 # Number of DP units (default=0)
-gpgpu_num_int_units                    0 # Number of INT units (default=0)
-gpgpu_num_sfu_units                    1 # Number of SF units (default=1)
-gpgpu_num_tensor_core_units                    0 # Number of tensor_core units (default=1)
-gpgpu_num_mem_units                    1 # Number if ldst units (default=1) WARNING: not hooked up to anything
-gpgpu_scheduler                      gto # Scheduler configuration: < lrr | gto | two_level_active > If two_level_active:<num_active_warps>:<inner_prioritization>:<outer_prioritization>For complete list of prioritization values see shader.h enum scheduler_prioritization_typeDefault: gto
-gpgpu_concurrent_kernel_sm                    0 # Support concurrent kernels on a SM (default = disabled)
-gpgpu_perfect_inst_const_cache                    0 # perfect inst and const cache mode, so all inst and const hits in the cache(default = disabled)
-gpgpu_inst_fetch_throughput                    1 # the number of fetched intruction per warp each cycle
-gpgpu_reg_file_port_throughput                    1 # the number ports of the register file
-specialized_unit_1         0,4,4,4,4,BRA # specialized unit config {<enabled>,<num_units>:<latency>:<initiation>,<ID_OC_SPEC>:<OC_EX_SPEC>,<NAME>}
-specialized_unit_2         0,4,4,4,4,BRA # specialized unit config {<enabled>,<num_units>:<latency>:<initiation>,<ID_OC_SPEC>:<OC_EX_SPEC>,<NAME>}
-specialized_unit_3         0,4,4,4,4,BRA # specialized unit config {<enabled>,<num_units>:<latency>:<initiation>,<ID_OC_SPEC>:<OC_EX_SPEC>,<NAME>}
-specialized_unit_4         0,4,4,4,4,BRA # specialized unit config {<enabled>,<num_units>:<latency>:<initiation>,<ID_OC_SPEC>:<OC_EX_SPEC>,<NAME>}
-specialized_unit_5         0,4,4,4,4,BRA # specialized unit config {<enabled>,<num_units>:<latency>:<initiation>,<ID_OC_SPEC>:<OC_EX_SPEC>,<NAME>}
-specialized_unit_6         0,4,4,4,4,BRA # specialized unit config {<enabled>,<num_units>:<latency>:<initiation>,<ID_OC_SPEC>:<OC_EX_SPEC>,<NAME>}
-specialized_unit_7         0,4,4,4,4,BRA # specialized unit config {<enabled>,<num_units>:<latency>:<initiation>,<ID_OC_SPEC>:<OC_EX_SPEC>,<NAME>}
-specialized_unit_8         0,4,4,4,4,BRA # specialized unit config {<enabled>,<num_units>:<latency>:<initiation>,<ID_OC_SPEC>:<OC_EX_SPEC>,<NAME>}
-gpgpu_perf_sim_memcpy                    1 # Fill the L2 cache on memcpy
-gpgpu_simple_dram_model                    0 # simple_dram_model with fixed latency and BW
-gpgpu_dram_scheduler                    1 # 0 = fifo, 1 = FR-FCFS (defaul)
-gpgpu_dram_partition_queues              8:8:8:8 # i2$:$2d:d2$:$2i
-l2_ideal                               0 # Use a ideal L2 cache that always hit
-gpgpu_cache:dl2     N:64:128:16,L:B:m:W:L,A:1024:1024,4:0,32 # unified banked L2 data cache config  {<nsets>:<bsize>:<assoc>,<rep>:<wr>:<alloc>:<wr_alloc>,<mshr>:<N>:<merge>,<mq>}
-gpgpu_cache:dl2_texture_only                    0 # L2 cache used for texture only
-gpgpu_n_mem                            8 # number of memory modules (e.g. memory controllers) in gpu
-gpgpu_n_sub_partition_per_mchannel                    2 # number of memory subpartition in each memory module
-gpgpu_n_mem_per_ctrlr                    1 # number of memory chips per memory controller
-gpgpu_memlatency_stat                   14 # track and display latency statistics 0x2 enables MC, 0x4 enables queue logs
-gpgpu_frfcfs_dram_sched_queue_size                   64 # 0 = unlimited (default); # entries per chip
-gpgpu_dram_return_queue_size                  116 # 0 = unlimited (default); # entries per chip
-gpgpu_dram_buswidth                    4 # default = 4 bytes (8 bytes per cycle at DDR)
-gpgpu_dram_burst_length                    8 # Burst length of each DRAM request (default = 4 data bus cycle)
-dram_data_command_freq_ratio                    4 # Frequency ratio between DRAM data bus and command bus (default = 2 times, i.e. DDR)
-gpgpu_dram_timing_opt nbk=16:CCD=2:RRD=6:RCD=12:RAS=28:RP=12:RC=40: CL=12:WL=4:CDLR=5:WR=12:nbkgrp=1:CCDL=0:RTPL=0 # DRAM timing parameters = {nbk:tCCD:tRRD:tRCD:tRAS:tRP:tRC:CL:WL:tCDLR:tWR:nbkgrp:tCCDL:tRTPL}
-gpgpu_l2_rop_latency                  120 # ROP queue latency (default 85)
-dram_latency                         100 # DRAM latency (default 30)
-dram_dual_bus_interface                    0 # dual_bus_interface (default = 0) 
-dram_bnk_indexing_policy                    0 # dram_bnk_indexing_policy (0 = normal indexing, 1 = Xoring with the higher bits) (Default = 0)
-dram_bnkgrp_indexing_policy                    0 # dram_bnkgrp_indexing_policy (0 = take higher bits, 1 = take lower bits) (Default = 0)
-dram_seperate_write_queue_enable                    0 # Seperate_Write_Queue_Enable
-dram_write_queue_size             32:28:16 # Write_Queue_Size
-dram_elimnate_rw_turnaround                    0 # elimnate_rw_turnaround i.e set tWTR and tRTW = 0
-icnt_flit_size                        32 # icnt_flit_size
-gpgpu_mem_addr_mapping dramid@8;00000000.00000000.00000000.00000000.0000RRRR.RRRRRRRR.RBBBCCCC.BCCSSSSS # mapping memory address to dram model {dramid@<start bit>;<memory address map>}
-gpgpu_mem_addr_test                    0 # run sweep test to check address mapping for aliased address
-gpgpu_mem_address_mask                    1 # 0 = old addressing mask, 1 = new addressing mask, 2 = new add. mask + flipped bank sel and chip sel bits
-gpgpu_memory_partition_indexing                    0 # 0 = no indexing, 1 = bitwise xoring, 2 = IPoly, 3 = custom indexing
-accelwattch_xml_file accelwattch_sass_sim.xml # AccelWattch XML file
-power_simulation_enabled                    0 # Turn on power simulator (1=On, 0=Off)
-power_per_cycle_dump                    0 # Dump detailed power output each cycle
-hw_perf_file_name            hw_perf.csv # Hardware Performance Statistics file
-hw_perf_bench_name                       # Kernel Name in Hardware Performance Statistics file
-power_simulation_mode                    0 # Switch performance counter input for power simulation (0=Sim, 1=HW, 2=HW-Sim Hybrid)
-dvfs_enabled                           0 # Turn on DVFS for power model
-aggregate_power_stats                    0 # Accumulate power across all kernels
-accelwattch_hybrid_perfsim_L1_RH                    0 # Get L1 Read Hits for Accelwattch-Hybrid from Accel-Sim
-accelwattch_hybrid_perfsim_L1_RM                    0 # Get L1 Read Misses for Accelwattch-Hybrid from Accel-Sim
-accelwattch_hybrid_perfsim_L1_WH                    0 # Get L1 Write Hits for Accelwattch-Hybrid from Accel-Sim
-accelwattch_hybrid_perfsim_L1_WM                    0 # Get L1 Write Misses for Accelwattch-Hybrid from Accel-Sim
-accelwattch_hybrid_perfsim_L2_RH                    0 # Get L2 Read Hits for Accelwattch-Hybrid from Accel-Sim
-accelwattch_hybrid_perfsim_L2_RM                    0 # Get L2 Read Misses for Accelwattch-Hybrid from Accel-Sim
-accelwattch_hybrid_perfsim_L2_WH                    0 # Get L2 Write Hits for Accelwattch-Hybrid from Accel-Sim
-accelwattch_hybrid_perfsim_L2_WM                    0 # Get L2 Write Misses for Accelwattch-Hybrid from Accel-Sim
-accelwattch_hybrid_perfsim_CC_ACC                    0 # Get Constant Cache Acesses for Accelwattch-Hybrid from Accel-Sim
-accelwattch_hybrid_perfsim_SHARED_ACC                    0 # Get Shared Memory Acesses for Accelwattch-Hybrid from Accel-Sim
-accelwattch_hybrid_perfsim_DRAM_RD                    0 # Get DRAM Reads for Accelwattch-Hybrid from Accel-Sim
-accelwattch_hybrid_perfsim_DRAM_WR                    0 # Get DRAM Writes for Accelwattch-Hybrid from Accel-Sim
-accelwattch_hybrid_perfsim_NOC                    0 # Get Interconnect Acesses for Accelwattch-Hybrid from Accel-Sim
-accelwattch_hybrid_perfsim_PIPE_DUTY                    0 # Get Pipeline Duty Cycle Acesses for Accelwattch-Hybrid from Accel-Sim
-accelwattch_hybrid_perfsim_NUM_SM_IDLE                    0 # Get Number of Idle SMs for Accelwattch-Hybrid from Accel-Sim
-accelwattch_hybrid_perfsim_CYCLES                    0 # Get Executed Cycles for Accelwattch-Hybrid from Accel-Sim
-accelwattch_hybrid_perfsim_VOLTAGE                    0 # Get Chip Voltage for Accelwattch-Hybrid from Accel-Sim
-power_trace_enabled                    0 # produce a file for the power trace (1=On, 0=Off)
-power_trace_zlevel                     6 # Compression level of the power trace output log (0=no comp, 9=highest)
-steady_power_levels_enabled                    0 # produce a file for the steady power levels (1=On, 0=Off)
-steady_state_definition                  8:4 # allowed deviation:number of samples
-gpgpu_max_cycle                        0 # terminates gpu simulation early (0 = no limit)
-gpgpu_max_insn                         0 # terminates gpu simulation early (0 = no limit)
-gpgpu_max_cta                          0 # terminates gpu simulation early (0 = no limit)
-gpgpu_max_completed_cta                    0 # terminates gpu simulation early (0 = no limit)
-gpgpu_runtime_stat                   500 # display runtime statistics such as dram utilization {<freq>:<flag>}
-liveness_message_freq                    1 # Minimum number of seconds between simulation liveness messages (0 = always print)
-gpgpu_compute_capability_major                    7 # Major compute capability version number
-gpgpu_compute_capability_minor                    0 # Minor compute capability version number
-gpgpu_flush_l1_cache                    0 # Flush L1 cache at the end of each kernel call
-gpgpu_flush_l2_cache                    0 # Flush L2 cache at the end of each kernel call
-gpgpu_deadlock_detect                    1 # Stop the simulation at deadlock (1=on (default), 0=off)
-gpgpu_ptx_instruction_classification                    0 # if enabled will classify ptx instruction types per kernel (Max 255 kernels now)
-gpgpu_ptx_sim_mode                     0 # Select between Performance (default) or Functional simulation (1)
-gpgpu_clock_domains 1607.0:2962.0:1607.0:2750.0 # Clock Domain Frequencies in MhZ {<Core Clock>:<ICNT Clock>:<L2 Clock>:<DRAM Clock>}
-gpgpu_max_concurrent_kernel                   32 # maximum kernels that can run concurrently on GPU, set this value according to max resident grids for your compute capability
-gpgpu_cflog_interval                    0 # Interval between each snapshot in control flow logger
-visualizer_enabled                     0 # Turn on visualizer output (1=On, 0=Off)
-visualizer_outputfile                 NULL # Specifies the output log file for visualizer
-visualizer_zlevel                      6 # Compression level of the visualizer output log (0=no comp, 9=highest)
-gpgpu_stack_size_limit                 1024 # GPU thread stack size
-gpgpu_heap_size_limit              8388608 # GPU malloc heap size 
-gpgpu_runtime_sync_depth_limit                    2 # GPU device runtime synchronize depth
-gpgpu_runtime_pending_launch_count_limit                 2048 # GPU device runtime pending launch count
-trace_enabled                          0 # Turn on traces
-trace_components                    none # comma seperated list of traces to enable. Complete list found in trace_streams.tup. Default none
-trace_sampling_core                    0 # The core which is printed using CORE_DPRINTF. Default 0
-trace_sampling_memory_partition                   -1 # The memory partition which is printed using MEMPART_DPRINTF. Default -1 (i.e. all)
-enable_ptx_file_line_stats                    1 # Turn on PTX source line statistic profiling. (1 = On)
-ptx_line_stats_filename gpgpu_inst_stats.txt # Output file for PTX source line statistics.
-gpgpu_kernel_launch_latency                    0 # Kernel launch latency in cycles. Default: 0
-gpgpu_cdp_enabled                      0 # Turn on CDP
-gpgpu_TB_launch_latency                    0 # thread block launch latency in cycles. Default: 0
DRAM Timing Options:
nbk                                    16 # number of banks
CCD                                     2 # column to column delay
RRD                                     6 # minimal delay between activation of rows in different banks
RCD                                    12 # row to column delay
RAS                                    28 # time needed to activate row
RP                                     12 # time needed to precharge (deactivate) row
RC                                     40 # row cycle time
CDLR                                    5 # switching from write to read (changes tWTR)
WR                                     12 # last data-in to row precharge
CL                                     12 # CAS latency
WL                                      4 # Write latency
nbkgrp                                  1 # number of bank groups
CCDL                                    0 # column to column delay between accesses to different bank groups
RTPL                                    0 # read to precharge delay between accesses to different bank groups
Total number of memory sub partition = 16
addr_dec_mask[CHIP]  = 0000000000000700 	high:11 low:8
addr_dec_mask[BK]    = 0000000000038080 	high:18 low:7
addr_dec_mask[ROW]   = 000000007ffc0000 	high:31 low:18
addr_dec_mask[COL]   = 000000000000787f 	high:15 low:0
addr_dec_mask[BURST] = 000000000000001f 	high:5 low:0
sub_partition_id_mask = 0000000000000080
GPGPU-Sim uArch: clock freqs: 1607000000.000000:2962000000.000000:1607000000.000000:2750000000.000000
GPGPU-Sim uArch: clock periods: 0.00000000062227753578:0.00000000033760972316:0.00000000062227753578:0.00000000036363636364
*** Initializing Memory Statistics ***
GPGPU-Sim uArch: interconnect node map (shaderID+MemID to icntID)
GPGPU-Sim uArch: Memory nodes ID start from index: 20
GPGPU-Sim uArch:    0   1   2   3   4   5   6
GPGPU-Sim uArch:    7   8   9  10  11  12  13
GPGPU-Sim uArch:   14  15  16  17  18  19  20
GPGPU-Sim uArch:   21  22  23  24  25  26  27
GPGPU-Sim uArch:   28  29  30  31  32  33  34
GPGPU-Sim uArch:   35  36  37  38  39  40  41
GPGPU-Sim uArch:   42  43  44  45  46  47  48
GPGPU-Sim uArch:   49
GPGPU-Sim uArch: interconnect node reverse map (icntID to shaderID+MemID)
GPGPU-Sim uArch: Memory nodes start from ID: 20
GPGPU-Sim uArch:    0   1   2   3   4   5   6
GPGPU-Sim uArch:    7   8   9  10  11  12  13
GPGPU-Sim uArch:   14  15  16  17  18  19  20
GPGPU-Sim uArch:   21  22  23  24  25  26  27
GPGPU-Sim uArch:   28  29  30  31  32  33  34
GPGPU-Sim uArch:   35  36  37  38  39  40  41
GPGPU-Sim uArch:   42  43  44  45  46  47  48
GPGPU-Sim uArch:   49
68d67566bc7e58def1a76b61a58ee0dc  /benchrun/accelsim-ptx/cuda6-transpose/sm6_gtx1080/input-repeat1-dimx128-dimy128/transpose
Extracting PTX file and ptxas options    1: transpose.1.sm_30.ptx -arch=sm_30
GPGPU-Sim uArch: performance model initialization complete.
self exe links to: /benchrun/accelsim-ptx/cuda6-transpose/sm6_gtx1080/input-repeat1-dimx128-dimy128/transpose
self exe links to: /benchrun/accelsim-ptx/cuda6-transpose/sm6_gtx1080/input-repeat1-dimx128-dimy128/transpose
10.1
GPGPU-Sim PTX: __cudaRegisterFatBinary, fat_cubin_handle = 1, filename=default
self exe links to: /benchrun/accelsim-ptx/cuda6-transpose/sm6_gtx1080/input-repeat1-dimx128-dimy128/transpose
Running md5sum using "md5sum /benchrun/accelsim-ptx/cuda6-transpose/sm6_gtx1080/input-repeat1-dimx128-dimy128/transpose "
self exe links to: /benchrun/accelsim-ptx/cuda6-transpose/sm6_gtx1080/input-repeat1-dimx128-dimy128/transpose
Extracting specific PTX file named transpose.1.sm_30.ptx 
GPGPU-Sim PTX: __cudaRegisterFunction _Z22transposeCoarseGrainedPfS_ii : hostFun 0x0x555f094038b2, fat_cubin_handle = 1
GPGPU-Sim PTX: Parsing transpose.1.sm_30.ptx
GPGPU-Sim PTX: instruction assembly for function '_Z4copyPfS_ii'...   done.
GPGPU-Sim PTX: allocating shared region for "_ZZ13copySharedMemPfS_iiE4tile" from 0x0 to 0x400 (shared memory space)
GPGPU-Sim PTX: instruction assembly for function '_Z13copySharedMemPfS_ii'...   done.
GPGPU-Sim PTX: instruction assembly for function '_Z14transposeNaivePfS_ii'...   done.
GPGPU-Sim PTX: allocating shared region for "_ZZ18transposeCoalescedPfS_iiE4tile" from 0x0 to 0x400 (shared memory space)
GPGPU-Sim PTX: instruction assembly for function '_Z18transposeCoalescedPfS_ii'...   done.
GPGPU-Sim PTX: allocating shared region for "_ZZ24transposeNoBankConflictsPfS_iiE4tile" from 0x0 to 0x440 (shared memory space)
GPGPU-Sim PTX: instruction assembly for function '_Z24transposeNoBankConflictsPfS_ii'...   done.
GPGPU-Sim PTX: allocating shared region for "_ZZ17transposeDiagonalPfS_iiE4tile" from 0x0 to 0x440 (shared memory space)
GPGPU-Sim PTX: instruction assembly for function '_Z17transposeDiagonalPfS_ii'...   done.
GPGPU-Sim PTX: allocating shared region for "_ZZ20transposeFineGrainedPfS_iiE5block" from 0x0 to 0x440 (shared memory space)
GPGPU-Sim PTX: instruction assembly for function '_Z20transposeFineGrainedPfS_ii'...   done.
GPGPU-Sim PTX: allocating shared region for "_ZZ22transposeCoarseGrainedPfS_iiE5block" from 0x0 to 0x440 (shared memory space)
GPGPU-Sim PTX: instruction assembly for function '_Z22transposeCoarseGrainedPfS_ii'...   done.
GPGPU-Sim PTX: finished parsing EMBEDDED .ptx file transpose.1.sm_30.ptx
GPGPU-Sim PTX: loading globals with explicit initializers... 
GPGPU-Sim PTX: finished loading globals (0 bytes total).
GPGPU-Sim PTX: loading constants with explicit initializers...  done.
GPGPU-Sim PTX: Loading PTXInfo from transpose.1.sm_30.ptx
GPGPU-Sim PTX: Kernel '_Z22transposeCoarseGrainedPfS_ii' : regs=10, lmem=0, smem=1088, cmem=344
GPGPU-Sim PTX: Kernel '_Z20transposeFineGrainedPfS_ii' : regs=10, lmem=0, smem=1088, cmem=344
GPGPU-Sim PTX: Kernel '_Z17transposeDiagonalPfS_ii' : regs=10, lmem=0, smem=1088, cmem=344
GPGPU-Sim PTX: Kernel '_Z24transposeNoBankConflictsPfS_ii' : regs=10, lmem=0, smem=1088, cmem=344
GPGPU-Sim PTX: Kernel '_Z18transposeCoalescedPfS_ii' : regs=10, lmem=0, smem=1024, cmem=344
GPGPU-Sim PTX: Kernel '_Z14transposeNaivePfS_ii' : regs=6, lmem=0, smem=0, cmem=344
GPGPU-Sim PTX: Kernel '_Z13copySharedMemPfS_ii' : regs=9, lmem=0, smem=1024, cmem=344
GPGPU-Sim PTX: Kernel '_Z4copyPfS_ii' : regs=6, lmem=0, smem=0, cmem=344
GPGPU-Sim PTX: __cudaRegisterFunction _Z20transposeFineGrainedPfS_ii : hostFun 0x0x555f09403718, fat_cubin_handle = 1
GPGPU-Sim PTX: __cudaRegisterFunction _Z17transposeDiagonalPfS_ii : hostFun 0x0x555f0940357e, fat_cubin_handle = 1
GPGPU-Sim PTX: __cudaRegisterFunction _Z24transposeNoBankConflictsPfS_ii : hostFun 0x0x555f094033e4, fat_cubin_handle = 1
GPGPU-Sim PTX: __cudaRegisterFunction _Z18transposeCoalescedPfS_ii : hostFun 0x0x555f0940324a, fat_cubin_handle = 1
GPGPU-Sim PTX: __cudaRegisterFunction _Z14transposeNaivePfS_ii : hostFun 0x0x555f094030b0, fat_cubin_handle = 1
GPGPU-Sim PTX: __cudaRegisterFunction _Z13copySharedMemPfS_ii : hostFun 0x0x555f09402f16, fat_cubin_handle = 1
GPGPU-Sim PTX: __cudaRegisterFunction _Z4copyPfS_ii : hostFun 0x0x555f09402d7c, fat_cubin_handle = 1
Transpose Starting...

MapSMtoCores for SM 7.0 is undefined.  Default to use 192 Cores/SM
GPU Device 0: "GPGPU-Sim_vGPGPU-Sim Simulator Version 4.2.0 " with compute capability 7.0

MapSMtoCores for SM 7.0 is undefined.  Default to use 192 Cores/SM
> Device 0: "GPGPU-Sim_vGPGPU-Sim Simulator Version 4.2.0 "
> SM Capability 7.0 detected:
MapSMtoCores for SM 7.0 is undefined.  Default to use 192 Cores/SM
MapSMtoCores for SM 7.0 is undefined.  Default to use 192 Cores/SM
> [GPGPU-Sim_vGPGPU-Sim Simulator Version 4.2.0 ] has 20 MP(s) x 192 (Cores/MP) = 3840 (Cores)
> Compute performance scaling factor = 1.00
> MatrixSize X = 128
> MatrixSize Y = 128

Matrix size: 128x128 (8x8 tiles), tile size: 16x16, block size: 16x16

GPGPU-Sim PTX: Setting up arguments for 8 bytes starting at 0x7ffdbf03a4b8..
GPGPU-Sim PTX: Setting up arguments for 8 bytes starting at 0x7ffdbf03a4b0..
GPGPU-Sim PTX: Setting up arguments for 4 bytes starting at 0x7ffdbf03a4ac..
GPGPU-Sim PTX: Setting up arguments for 4 bytes starting at 0x7ffdbf03a4a8..

GPGPU-Sim PTX: cudaLaunch for 0x0x555f09402d7c (mode=performance simulation) on stream 0
GPGPU-Sim PTX: finding reconvergence points for '_Z4copyPfS_ii'...
GPGPU-Sim PTX: Finding dominators for '_Z4copyPfS_ii'...
GPGPU-Sim PTX: Finding immediate dominators for '_Z4copyPfS_ii'...
GPGPU-Sim PTX: Finding postdominators for '_Z4copyPfS_ii'...
GPGPU-Sim PTX: Finding immediate postdominators for '_Z4copyPfS_ii'...
GPGPU-Sim PTX: pre-decoding instructions for '_Z4copyPfS_ii'...
GPGPU-Sim PTX: reconvergence points for _Z4copyPfS_ii...
GPGPU-Sim PTX: ... end of reconvergence points for _Z4copyPfS_ii
GPGPU-Sim PTX: ... done pre-decoding instructions for '_Z4copyPfS_ii'.
GPGPU-Sim PTX: pushing kernel '_Z4copyPfS_ii' to stream 0, gridDim= (8,8,1) blockDim = (16,16,1) 
GPGPU-Sim uArch: Shader 0 bind to kernel 1 '_Z4copyPfS_ii'
GPGPU-Sim uArch: CTA/core = 8, limited by: threads
GPGPU-Sim uArch: Shader 1 bind to kernel 1 '_Z4copyPfS_ii'
GPGPU-Sim uArch: Shader 2 bind to kernel 1 '_Z4copyPfS_ii'
GPGPU-Sim uArch: Shader 3 bind to kernel 1 '_Z4copyPfS_ii'
GPGPU-Sim uArch: Shader 4 bind to kernel 1 '_Z4copyPfS_ii'
GPGPU-Sim uArch: Shader 5 bind to kernel 1 '_Z4copyPfS_ii'
GPGPU-Sim uArch: Shader 6 bind to kernel 1 '_Z4copyPfS_ii'
GPGPU-Sim uArch: Shader 7 bind to kernel 1 '_Z4copyPfS_ii'
GPGPU-Sim uArch: Shader 8 bind to kernel 1 '_Z4copyPfS_ii'
GPGPU-Sim uArch: Shader 9 bind to kernel 1 '_Z4copyPfS_ii'
GPGPU-Sim uArch: Shader 10 bind to kernel 1 '_Z4copyPfS_ii'
GPGPU-Sim uArch: Shader 11 bind to kernel 1 '_Z4copyPfS_ii'
GPGPU-Sim uArch: Shader 12 bind to kernel 1 '_Z4copyPfS_ii'
GPGPU-Sim uArch: Shader 13 bind to kernel 1 '_Z4copyPfS_ii'
GPGPU-Sim uArch: Shader 14 bind to kernel 1 '_Z4copyPfS_ii'
GPGPU-Sim uArch: Shader 15 bind to kernel 1 '_Z4copyPfS_ii'
GPGPU-Sim uArch: Shader 16 bind to kernel 1 '_Z4copyPfS_ii'
GPGPU-Sim uArch: Shader 17 bind to kernel 1 '_Z4copyPfS_ii'
GPGPU-Sim uArch: Shader 18 bind to kernel 1 '_Z4copyPfS_ii'
GPGPU-Sim uArch: Shader 19 bind to kernel 1 '_Z4copyPfS_ii'
Destroy streams for kernel 1: size 0
kernel_name = _Z4copyPfS_ii 
kernel_launch_uid = 1 
gpu_sim_cycle = 2137
gpu_sim_insn = 327680
gpu_ipc =     153.3365
gpu_tot_sim_cycle = 2137
gpu_tot_sim_insn = 327680
gpu_tot_ipc =     153.3365
gpu_tot_issued_cta = 64
gpu_occupancy = 33.9064% 
gpu_tot_occupancy = 33.9064% 
max_total_param_size = 0
gpu_stall_dramfull = 2279
gpu_stall_icnt2sh    = 4757
partiton_level_parallism =       0.9864
partiton_level_parallism_total  =       0.9864
partiton_level_parallism_util =       5.2438
partiton_level_parallism_util_total  =       5.2438
L2_BW  =      93.4977 GB/Sec
L2_BW_total  =      93.4977 GB/Sec
gpu_total_sim_rate=163840

========= Core cache stats =========
L1I_cache:
	L1I_total_cache_accesses = 5120
	L1I_total_cache_misses = 1024
	L1I_total_cache_miss_rate = 0.2000
	L1I_total_cache_pending_hits = 0
	L1I_total_cache_reservation_fails = 0
L1D_cache:
	L1D_cache_core[0]: Access = 0, Miss = 0, Miss_rate = -nan, Pending_hits = 0, Reservation_fails = 0
	L1D_cache_core[1]: Access = 0, Miss = 0, Miss_rate = -nan, Pending_hits = 0, Reservation_fails = 0
	L1D_cache_core[2]: Access = 0, Miss = 0, Miss_rate = -nan, Pending_hits = 0, Reservation_fails = 0
	L1D_cache_core[3]: Access = 0, Miss = 0, Miss_rate = -nan, Pending_hits = 0, Reservation_fails = 0
	L1D_cache_core[4]: Access = 0, Miss = 0, Miss_rate = -nan, Pending_hits = 0, Reservation_fails = 0
	L1D_cache_core[5]: Access = 0, Miss = 0, Miss_rate = -nan, Pending_hits = 0, Reservation_fails = 0
	L1D_cache_core[6]: Access = 0, Miss = 0, Miss_rate = -nan, Pending_hits = 0, Reservation_fails = 0
	L1D_cache_core[7]: Access = 0, Miss = 0, Miss_rate = -nan, Pending_hits = 0, Reservation_fails = 0
	L1D_cache_core[8]: Access = 0, Miss = 0, Miss_rate = -nan, Pending_hits = 0, Reservation_fails = 0
	L1D_cache_core[9]: Access = 0, Miss = 0, Miss_rate = -nan, Pending_hits = 0, Reservation_fails = 0
	L1D_cache_core[10]: Access = 0, Miss = 0, Miss_rate = -nan, Pending_hits = 0, Reservation_fails = 0
	L1D_cache_core[11]: Access = 0, Miss = 0, Miss_rate = -nan, Pending_hits = 0, Reservation_fails = 0
	L1D_cache_core[12]: Access = 0, Miss = 0, Miss_rate = -nan, Pending_hits = 0, Reservation_fails = 0
	L1D_cache_core[13]: Access = 0, Miss = 0, Miss_rate = -nan, Pending_hits = 0, Reservation_fails = 0
	L1D_cache_core[14]: Access = 0, Miss = 0, Miss_rate = -nan, Pending_hits = 0, Reservation_fails = 0
	L1D_cache_core[15]: Access = 0, Miss = 0, Miss_rate = -nan, Pending_hits = 0, Reservation_fails = 0
	L1D_cache_core[16]: Access = 0, Miss = 0, Miss_rate = -nan, Pending_hits = 0, Reservation_fails = 0
	L1D_cache_core[17]: Access = 0, Miss = 0, Miss_rate = -nan, Pending_hits = 0, Reservation_fails = 0
	L1D_cache_core[18]: Access = 0, Miss = 0, Miss_rate = -nan, Pending_hits = 0, Reservation_fails = 0
	L1D_cache_core[19]: Access = 0, Miss = 0, Miss_rate = -nan, Pending_hits = 0, Reservation_fails = 0
	L1D_total_cache_accesses = 0
	L1D_total_cache_misses = 0
	L1D_total_cache_pending_hits = 0
	L1D_total_cache_reservation_fails = 0
	L1D_cache_data_port_util = 0.000
	L1D_cache_fill_port_util = 0.000
L1C_cache:
	L1C_total_cache_accesses = 1536
	L1C_total_cache_misses = 1280
	L1C_total_cache_miss_rate = 0.8333
	L1C_total_cache_pending_hits = 0
	L1C_total_cache_reservation_fails = 2869
L1T_cache:
	L1T_total_cache_accesses = 0
	L1T_total_cache_misses = 0
	L1T_total_cache_pending_hits = 0
	L1T_total_cache_reservation_fails = 0

Total_core_cache_stats:
	Total_core_cache_stats_breakdown[GLOBAL_ACC_R][HIT] = 0
	Total_core_cache_stats_breakdown[GLOBAL_ACC_R][HIT_RESERVED] = 0
	Total_core_cache_stats_breakdown[GLOBAL_ACC_R][MISS] = 0
	Total_core_cache_stats_breakdown[GLOBAL_ACC_R][RESERVATION_FAIL] = 0
	Total_core_cache_stats_breakdown[GLOBAL_ACC_R][SECTOR_MISS] = 0
	Total_core_cache_stats_breakdown[GLOBAL_ACC_R][MSHR_HIT] = 0
	Total_core_cache_stats_breakdown[LOCAL_ACC_R][HIT] = 0
	Total_core_cache_stats_breakdown[LOCAL_ACC_R][HIT_RESERVED] = 0
	Total_core_cache_stats_breakdown[LOCAL_ACC_R][MISS] = 0
	Total_core_cache_stats_breakdown[LOCAL_ACC_R][RESERVATION_FAIL] = 0
	Total_core_cache_stats_breakdown[LOCAL_ACC_R][SECTOR_MISS] = 0
	Total_core_cache_stats_breakdown[LOCAL_ACC_R][MSHR_HIT] = 0
	Total_core_cache_stats_breakdown[CONST_ACC_R][HIT] = 256
	Total_core_cache_stats_breakdown[CONST_ACC_R][HIT_RESERVED] = 0
	Total_core_cache_stats_breakdown[CONST_ACC_R][MISS] = 1280
	Total_core_cache_stats_breakdown[CONST_ACC_R][RESERVATION_FAIL] = 2869
	Total_core_cache_stats_breakdown[CONST_ACC_R][SECTOR_MISS] = 0
	Total_core_cache_stats_breakdown[CONST_ACC_R][MSHR_HIT] = 1260
	Total_core_cache_stats_breakdown[TEXTURE_ACC_R][HIT] = 0
	Total_core_cache_stats_breakdown[TEXTURE_ACC_R][HIT_RESERVED] = 0
	Total_core_cache_stats_breakdown[TEXTURE_ACC_R][MISS] = 0
	Total_core_cache_stats_breakdown[TEXTURE_ACC_R][RESERVATION_FAIL] = 0
	Total_core_cache_stats_breakdown[TEXTURE_ACC_R][SECTOR_MISS] = 0
	Total_core_cache_stats_breakdown[TEXTURE_ACC_R][MSHR_HIT] = 0
	Total_core_cache_stats_breakdown[GLOBAL_ACC_W][HIT] = 0
	Total_core_cache_stats_breakdown[GLOBAL_ACC_W][HIT_RESERVED] = 0
	Total_core_cache_stats_breakdown[GLOBAL_ACC_W][MISS] = 0
	Total_core_cache_stats_breakdown[GLOBAL_ACC_W][RESERVATION_FAIL] = 0
	Total_core_cache_stats_breakdown[GLOBAL_ACC_W][SECTOR_MISS] = 0
	Total_core_cache_stats_breakdown[GLOBAL_ACC_W][MSHR_HIT] = 0
	Total_core_cache_stats_breakdown[LOCAL_ACC_W][HIT] = 0
	Total_core_cache_stats_breakdown[LOCAL_ACC_W][HIT_RESERVED] = 0
	Total_core_cache_stats_breakdown[LOCAL_ACC_W][MISS] = 0
	Total_core_cache_stats_breakdown[LOCAL_ACC_W][RESERVATION_FAIL] = 0
	Total_core_cache_stats_breakdown[LOCAL_ACC_W][SECTOR_MISS] = 0
	Total_core_cache_stats_breakdown[LOCAL_ACC_W][MSHR_HIT] = 0
	Total_core_cache_stats_breakdown[L1_WRBK_ACC][HIT] = 0
	Total_core_cache_stats_breakdown[L1_WRBK_ACC][HIT_RESERVED] = 0
	Total_core_cache_stats_breakdown[L1_WRBK_ACC][MISS] = 0
	Total_core_cache_stats_breakdown[L1_WRBK_ACC][RESERVATION_FAIL] = 0
	Total_core_cache_stats_breakdown[L1_WRBK_ACC][SECTOR_MISS] = 0
	Total_core_cache_stats_breakdown[L1_WRBK_ACC][MSHR_HIT] = 0
	Total_core_cache_stats_breakdown[L2_WRBK_ACC][HIT] = 0
	Total_core_cache_stats_breakdown[L2_WRBK_ACC][HIT_RESERVED] = 0
	Total_core_cache_stats_breakdown[L2_WRBK_ACC][MISS] = 0
	Total_core_cache_stats_breakdown[L2_WRBK_ACC][RESERVATION_FAIL] = 0
	Total_core_cache_stats_breakdown[L2_WRBK_ACC][SECTOR_MISS] = 0
	Total_core_cache_stats_breakdown[L2_WRBK_ACC][MSHR_HIT] = 0
	Total_core_cache_stats_breakdown[INST_ACC_R][HIT] = 4096
	Total_core_cache_stats_breakdown[INST_ACC_R][HIT_RESERVED] = 0
	Total_core_cache_stats_breakdown[INST_ACC_R][MISS] = 1024
	Total_core_cache_stats_breakdown[INST_ACC_R][RESERVATION_FAIL] = 0
	Total_core_cache_stats_breakdown[INST_ACC_R][SECTOR_MISS] = 0
	Total_core_cache_stats_breakdown[INST_ACC_R][MSHR_HIT] = 984
	Total_core_cache_stats_breakdown[L1_WR_ALLOC_R][HIT] = 0
	Total_core_cache_stats_breakdown[L1_WR_ALLOC_R][HIT_RESERVED] = 0
	Total_core_cache_stats_breakdown[L1_WR_ALLOC_R][MISS] = 0
	Total_core_cache_stats_breakdown[L1_WR_ALLOC_R][RESERVATION_FAIL] = 0
	Total_core_cache_stats_breakdown[L1_WR_ALLOC_R][SECTOR_MISS] = 0
	Total_core_cache_stats_breakdown[L1_WR_ALLOC_R][MSHR_HIT] = 0
	Total_core_cache_stats_breakdown[L2_WR_ALLOC_R][HIT] = 0
	Total_core_cache_stats_breakdown[L2_WR_ALLOC_R][HIT_RESERVED] = 0
	Total_core_cache_stats_breakdown[L2_WR_ALLOC_R][MISS] = 0
	Total_core_cache_stats_breakdown[L2_WR_ALLOC_R][RESERVATION_FAIL] = 0
	Total_core_cache_stats_breakdown[L2_WR_ALLOC_R][SECTOR_MISS] = 0
	Total_core_cache_stats_breakdown[L2_WR_ALLOC_R][MSHR_HIT] = 0
	Total_core_cache_stats_breakdown[CONST_ACC_R][TOTAL_ACCESS] = 1536
	Total_core_cache_stats_breakdown[INST_ACC_R][TOTAL_ACCESS] = 5120

Total_core_cache_fail_stats:
	Total_core_cache_fail_stats_breakdown[CONST_ACC_R][MSHR_MERGE_ENRTY_FAIL] = 2869
ctas_completed 64, Shader 0 warp_id issue ditsribution:
warp_id:
0, 1, 2, 3, 4, 5, 6, 7, 8, 9, 10, 11, 12, 13, 14, 15, 16, 17, 18, 19, 20, 21, 22, 23, 24, 25, 26, 27, 28, 29, 30, 31, 
distro:
23, 23, 23, 23, 23, 23, 23, 23, 23, 23, 23, 23, 23, 23, 23, 23, 23, 23, 23, 23, 23, 23, 23, 23, 23, 23, 23, 23, 23, 23, 23, 23, 
gpgpu_n_tot_thrd_icount = 327680
gpgpu_n_tot_w_icount = 10240
gpgpu_n_stall_shd_mem = 7559
gpgpu_n_mem_read_local = 0
gpgpu_n_mem_write_local = 0
gpgpu_n_mem_read_global = 1024
gpgpu_n_mem_write_global = 1024
gpgpu_n_mem_texture = 0
gpgpu_n_mem_const = 20
gpgpu_n_load_insn  = 16384
gpgpu_n_store_insn = 16384
gpgpu_n_shmem_insn = 0
gpgpu_n_sstarr_insn = 0
gpgpu_n_tex_insn = 0
gpgpu_n_const_mem_insn = 0
gpgpu_n_param_mem_insn = 49152
gpgpu_n_shmem_bkconflict = 0
gpgpu_n_cache_bkconflict = 0
gpgpu_n_intrawarp_mshr_merge = 0
gpgpu_n_cmem_portconflict = 2869
gpgpu_stall_shd_mem[c_mem][resource_stall] = 2869
gpgpu_stall_shd_mem[s_mem][bk_conf] = 0
gpgpu_stall_shd_mem[gl_mem][resource_stall] = 0
gpgpu_stall_shd_mem[gl_mem][coal_stall] = 1024
gpgpu_stall_shd_mem[gl_mem][data_port_stall] = 0
gpu_reg_bank_conflict_stalls = 0
Warp Occupancy Distribution:
Stall:3942	W0_Idle:54712	W0_Scoreboard:15210	W1:0	W2:0	W3:0	W4:0	W5:0	W6:0	W7:0	W8:0	W9:0	W10:0	W11:0	W12:0	W13:0	W14:0	W15:0	W16:0	W17:0	W18:0	W19:0	W20:0	W21:0	W22:0	W23:0	W24:0	W25:0	W26:0	W27:0	W28:0	W29:0	W30:0	W31:0	W32:10240
single_issue_nums: WS0:3584	WS1:3584	
dual_issue_nums: WS0:768	WS1:768	
traffic_breakdown_coretomem[CONST_ACC_R] = 160 {8:20,}
traffic_breakdown_coretomem[GLOBAL_ACC_R] = 8192 {8:1024,}
traffic_breakdown_coretomem[GLOBAL_ACC_W] = 73728 {72:1024,}
traffic_breakdown_coretomem[INST_ACC_R] = 320 {8:40,}
traffic_breakdown_memtocore[CONST_ACC_R] = 1440 {72:20,}
traffic_breakdown_memtocore[GLOBAL_ACC_R] = 73728 {72:1024,}
traffic_breakdown_memtocore[GLOBAL_ACC_W] = 8192 {8:1024,}
traffic_breakdown_memtocore[INST_ACC_R] = 5440 {136:40,}
maxmflatency = 883 
max_icnt2mem_latency = 186 
maxmrqlatency = 524 
max_icnt2sh_latency = 48 
averagemflatency = 349 
avg_icnt2mem_latency = 29 
avg_mrq_latency = 194 
avg_icnt2sh_latency = 12 
mrq_lat_table:78 	8 	28 	43 	77 	128 	236 	403 	526 	3 	0 	0 	0 	0 	0 	0 	0 	0 	0 	0 	0 	0 	0 	0 	0 	0 	0 	0 	0 	0 	0 	0 	
dq_lat_table:0 	0 	0 	0 	0 	0 	0 	0 	0 	0 	0 	0 	0 	0 	0 	0 	0 	0 	0 	0 	0 	0 	0 	0 	0 	0 	0 	0 	0 	0 	0 	0 	
mf_lat_table:0 	0 	0 	0 	0 	0 	0 	903 	522 	643 	0 	0 	0 	0 	0 	0 	0 	0 	0 	0 	0 	0 	0 	0 	0 	0 	0 	0 	0 	0 	0 	0 	
icnt2mem_lat_table:0 	0 	327 	688 	807 	61 	143 	82 	0 	0 	0 	0 	0 	0 	0 	0 	0 	0 	0 	0 	0 	0 	0 	0 	
icnt2sh_lat_table:0 	0 	1053 	334 	655 	26 	0 	0 	0 	0 	0 	0 	0 	0 	0 	0 	0 	0 	0 	0 	0 	0 	0 	0 	
mf_lat_pw_table:0 	0 	0 	0 	0 	0 	0 	2 	0 	1 	0 	0 	0 	0 	0 	0 	0 	0 	0 	0 	0 	0 	0 	0 	0 	0 	0 	0 	0 	0 	0 	0 	
maximum concurrent accesses to same row:
dram[0]:         1         0         0         0         0         0         0         0         0         0         0         0         0         0         0         0 
dram[1]:         0         0         0         0         0         0         0         0         0         0         0         0         0         0         0         0 
dram[2]:         0         0         0         0         0         0         0         0         0         0         0         0         0         0         0         0 
dram[3]:         0         0         0         0         0         0         0         0         0         0         0         0         0         0         0         0 
dram[4]:         0         0         0         0         0         0         0         0         0         0         0         0         0         0         0         0 
dram[5]:         0         0         0         0         0         0         0         0         0         0         0         0         0         0         0         0 
dram[6]:         0         0         0         0         0         0         0         0         0         0         0         0         0         0         0         0 
dram[7]:         0         0         0         0         0         0         0         0         0         0         0         0         0         0         0         0 
maximum service time to same row:
dram[0]:       262       788         0         0      1242      1267      1239      1266         0         0         0         0         0         0         0         0 
dram[1]:         0         0         0         0      1395      1260      1280      1259         0         0         0         0         0         0         0         0 
dram[2]:         0         0         0         0      1229      1256      1226      1255         0         0         0         0         0         0         0         0 
dram[3]:         0         0         0         0      1397      1232      1283      1231         0         0         0         0         0         0         0         0 
dram[4]:         0         0         0         0      1224      1256      1340      1366         0         0         0         0         0         0         0         0 
dram[5]:         0         0         0         0      1236      1248      1394      1245         0         0         0         0         0         0         0         0 
dram[6]:         0         0         0         0      1228      1234      1345      1345         0         0         0         0         0         0         0         0 
dram[7]:         0         0         0         0      1241      1234      1392      1232         0         0         0         0         0         0         0         0 
average row accesses per activate:
dram[0]:  1.000000  1.000000      -nan      -nan 48.000000 48.000000 48.000000 47.000000      -nan      -nan      -nan      -nan      -nan      -nan      -nan      -nan 
dram[1]:      -nan      -nan      -nan      -nan 48.000000 48.000000 48.000000 48.000000      -nan      -nan      -nan      -nan      -nan      -nan      -nan      -nan 
dram[2]:      -nan      -nan      -nan      -nan 48.000000 48.000000 48.000000 47.000000      -nan      -nan      -nan      -nan      -nan      -nan      -nan      -nan 
dram[3]:      -nan      -nan      -nan      -nan 48.000000 48.000000 48.000000 48.000000      -nan      -nan      -nan      -nan      -nan      -nan      -nan      -nan 
dram[4]:      -nan      -nan      -nan      -nan 48.000000 48.000000 48.000000 47.000000      -nan      -nan      -nan      -nan      -nan      -nan      -nan      -nan 
dram[5]:      -nan      -nan      -nan      -nan 48.000000 48.000000 48.000000 46.000000      -nan      -nan      -nan      -nan      -nan      -nan      -nan      -nan 
dram[6]:      -nan      -nan      -nan      -nan 48.000000 47.000000 48.000000 47.000000      -nan      -nan      -nan      -nan      -nan      -nan      -nan      -nan 
dram[7]:      -nan      -nan      -nan      -nan 48.000000 48.000000 48.000000 46.000000      -nan      -nan      -nan      -nan      -nan      -nan      -nan      -nan 
average row locality = 1530/35 = 43.714287
number of total memory accesses made:
dram[0]:         0         0         0         0         0         0         0         0         0         0         0         0         0         0         0         0 
dram[1]:         0         0         0         0         0         0         0         0         0         0         0         0         0         0         0         0 
dram[2]:         0         0         0         0         0         0         0         0         0         0         0         0         0         0         0         0 
dram[3]:         0         0         0         0         0         0         0         0         0         0         0         0         0         0         0         0 
dram[4]:         0         0         0         0         0         0         0         0         0         0         0         0         0         0         0         0 
dram[5]:         0         0         0         0         0         0         0         0         0         0         0         0         0         0         0         0 
dram[6]:         0         0         0         0         0         0         0         0         0         0         0         0         0         0         0         0 
dram[7]:         0         0         0         0         0         0         0         0         0         0         0         0         0         0         0         0 
total accesses: 0
min_bank_accesses = 0!
min_chip_accesses = 0!
number of total read accesses:
dram[0]:         8         4         0         0        64        64        64        64         0         0         0         0         0         0         0         0 
dram[1]:         0         0         0         0        64        64        64        64         0         0         0         0         0         0         0         0 
dram[2]:         0         0         0         0        64        64        64        64         0         0         0         0         0         0         0         0 
dram[3]:         0         0         0         0        64        64        64        64         0         0         0         0         0         0         0         0 
dram[4]:         0         0         0         0        64        64        64        64         0         0         0         0         0         0         0         0 
dram[5]:         0         0         0         0        64        64        64        64         0         0         0         0         0         0         0         0 
dram[6]:         0         0         0         0        64        64        64        64         0         0         0         0         0         0         0         0 
dram[7]:         0         0         0         0        64        64        64        64         0         0         0         0         0         0         0         0 
total dram reads = 2060
min_bank_accesses = 0!
chip skew: 268/256 = 1.05
number of total write accesses:
dram[0]:         0         0         0         0        64        64        64        62         0         0         0         0         0         0         0         0 
dram[1]:         0         0         0         0        64        64        64        64         0         0         0         0         0         0         0         0 
dram[2]:         0         0         0         0        64        64        64        62         0         0         0         0         0         0         0         0 
dram[3]:         0         0         0         0        64        64        64        64         0         0         0         0         0         0         0         0 
dram[4]:         0         0         0         0        64        64        64        62         0         0         0         0         0         0         0         0 
dram[5]:         0         0         0         0        64        64        64        60         0         0         0         0         0         0         0         0 
dram[6]:         0         0         0         0        64        62        64        62         0         0         0         0         0         0         0         0 
dram[7]:         0         0         0         0        64        64        64        60         0         0         0         0         0         0         0         0 
total dram writes = 2030
min_bank_accesses = 0!
chip skew: 256/252 = 1.02
average mf latency per bank:
dram[0]:       1334      1557    none      none         130       154       145       149    none      none      none      none      none      none      none      none  
dram[1]:     none      none      none      none         160       164       144       130    none      none      none      none      none      none      none      none  
dram[2]:     none      none      none      none         128       153       144       147    none      none      none      none      none      none      none      none  
dram[3]:     none      none      none      none         161       156       144       121    none      none      none      none      none      none      none      none  
dram[4]:     none      none      none      none         149       150       143       155    none      none      none      none      none      none      none      none  
dram[5]:     none      none      none      none         140       142       146       136    none      none      none      none      none      none      none      none  
dram[6]:     none      none      none      none         144       144       149       149    none      none      none      none      none      none      none      none  
dram[7]:     none      none      none      none         146       136       149       139    none      none      none      none      none      none      none      none  
maximum mf latency per bank:
dram[0]:        261       268       270       279       784       804       824       820         0         0         0         0         0         0         0         0
dram[1]:        274       259       307       273       883       841       849       785         0         0         0         0         0         0         0         0
dram[2]:        228       263       260       269       782       802       813       814         0         0         0         0         0         0         0         0
dram[3]:        277       232       313       242       877       803       839       737         0         0         0         0         0         0         0         0
dram[4]:        231       257       251       273       830       824       819       834         0         0         0         0         0         0         0         0
dram[5]:        218       239       271       282       788       800       822       790         0         0         0         0         0         0         0         0
dram[6]:        237       236       266       268       869       795       827       817         0         0         0         0         0         0         0         0
dram[7]:        232       227       274       276       809       764       831       800         0         0         0         0         0         0         0         0
Memory Partition 0: 
Cache L2_bank_000:
MSHR contents

Cache L2_bank_001:
MSHR contents

In Dram Latency Queue (total = 0): 
DRAM[0]: 16 bks, busW=4 BL=8 CL=12, tRRD=6 tCCD=2, tRCD=12 tRAS=28 tRP=12 tRC=40
n_cmd=3656 n_nop=3126 n_act=7 n_pre=1 n_ref_event=0 n_req=194 n_rd=12 n_rd_L2_A=256 n_write=254 n_wr_bk=0 bw_util=0.2856
n_activity=1532 dram_eff=0.6815
bk0: 8a 3608i bk1: 4a 3637i bk2: 0a 3657i bk3: 0a 3659i bk4: 64a 2560i bk5: 64a 2505i bk6: 64a 2468i bk7: 64a 2436i bk8: 0a 3653i bk9: 0a 3654i bk10: 0a 3655i bk11: 0a 3656i bk12: 0a 3656i bk13: 0a 3656i bk14: 0a 3656i bk15: 0a 3656i 

------------------------------------------------------------------------

Row_Buffer_Locality = 0.963918
Row_Buffer_Locality_read = 0.955224
Row_Buffer_Locality_write = 0.968504
Bank_Level_Parallism = 3.393646
Bank_Level_Parallism_Col = 3.415503
Bank_Level_Parallism_Ready = 2.323755
write_to_read_ratio_blp_rw_average = 0.506169
GrpLevelPara = 1.000000 

BW Util details:
bwutil = 0.285558 
total_CMD = 3656 
util_bw = 1044 
Wasted_Col = 397 
Wasted_Row = 12 
Idle = 2203 

BW Util Bottlenecks: 
RCDc_limit = 38 
RCDWRc_limit = 18 
WTRc_limit = 579 
RTWc_limit = 644 
CCDLc_limit = 0 
rwq = 0 
CCDLc_limit_alone = 0 
WTRc_limit_alone = 579 
RTWc_limit_alone = 644 

Commands details: 
total_CMD = 3656 
n_nop = 3126 
Read = 12 
Write = 254 
L2_Alloc = 256 
L2_WB = 0 
n_act = 7 
n_pre = 1 
n_ref = 0 
n_req = 194 
total_req = 522 

Dual Bus Interface Util: 
issued_total_row = 8 
issued_total_col = 522 
Row_Bus_Util =  0.002188 
CoL_Bus_Util = 0.142779 
Either_Row_CoL_Bus_Util = 0.144967 
Issued_on_Two_Bus_Simul_Util = 0.000000 
issued_two_Eff = 0.000000 
queue_avg = 17.085613 


dram_util_bins: 0 0 0 0 0 0 0 0 0 0
dram_eff_bins: 0 0 0 0 0 0 0 0 0 0
mrqq: max=64 avg=17.0856
Memory Partition 1: 
Cache L2_bank_002:
MSHR contents

Cache L2_bank_003:
MSHR contents

In Dram Latency Queue (total = 0): 
DRAM[1]: 16 bks, busW=4 BL=8 CL=12, tRRD=6 tCCD=2, tRCD=12 tRAS=28 tRP=12 tRC=40
n_cmd=3656 n_nop=3140 n_act=4 n_pre=0 n_ref_event=0 n_req=192 n_rd=0 n_rd_L2_A=256 n_write=256 n_wr_bk=0 bw_util=0.2801
n_activity=1422 dram_eff=0.7201
bk0: 0a 3656i bk1: 0a 3657i bk2: 0a 3657i bk3: 0a 3658i bk4: 64a 2467i bk5: 64a 2519i bk6: 64a 2511i bk7: 64a 2466i bk8: 0a 3653i bk9: 0a 3655i bk10: 0a 3655i bk11: 0a 3655i bk12: 0a 3655i bk13: 0a 3655i bk14: 0a 3655i bk15: 0a 3656i 

------------------------------------------------------------------------

Row_Buffer_Locality = 0.979167
Row_Buffer_Locality_read = 1.000000
Row_Buffer_Locality_write = 0.968750
Bank_Level_Parallism = 3.466810
Bank_Level_Parallism_Col = 3.464286
Bank_Level_Parallism_Ready = 2.281250
write_to_read_ratio_blp_rw_average = 0.505417
GrpLevelPara = 1.000000 

BW Util details:
bwutil = 0.280088 
total_CMD = 3656 
util_bw = 1024 
Wasted_Col = 379 
Wasted_Row = 0 
Idle = 2253 

BW Util Bottlenecks: 
RCDc_limit = 2 
RCDWRc_limit = 19 
WTRc_limit = 578 
RTWc_limit = 638 
CCDLc_limit = 0 
rwq = 0 
CCDLc_limit_alone = 0 
WTRc_limit_alone = 578 
RTWc_limit_alone = 638 

Commands details: 
total_CMD = 3656 
n_nop = 3140 
Read = 0 
Write = 256 
L2_Alloc = 256 
L2_WB = 0 
n_act = 4 
n_pre = 0 
n_ref = 0 
n_req = 192 
total_req = 512 

Dual Bus Interface Util: 
issued_total_row = 4 
issued_total_col = 512 
Row_Bus_Util =  0.001094 
CoL_Bus_Util = 0.140044 
Either_Row_CoL_Bus_Util = 0.141138 
Issued_on_Two_Bus_Simul_Util = 0.000000 
issued_two_Eff = 0.000000 
queue_avg = 17.746992 


dram_util_bins: 0 0 0 0 0 0 0 0 0 0
dram_eff_bins: 0 0 0 0 0 0 0 0 0 0
mrqq: max=64 avg=17.747
Memory Partition 2: 
Cache L2_bank_004:
MSHR contents

Cache L2_bank_005:
MSHR contents

In Dram Latency Queue (total = 0): 
DRAM[2]: 16 bks, busW=4 BL=8 CL=12, tRRD=6 tCCD=2, tRCD=12 tRAS=28 tRP=12 tRC=40
n_cmd=3656 n_nop=3142 n_act=4 n_pre=0 n_ref_event=0 n_req=191 n_rd=0 n_rd_L2_A=256 n_write=254 n_wr_bk=0 bw_util=0.279
n_activity=1400 dram_eff=0.7286
bk0: 0a 3656i bk1: 0a 3657i bk2: 0a 3659i bk3: 0a 3659i bk4: 64a 2560i bk5: 64a 2511i bk6: 64a 2460i bk7: 64a 2440i bk8: 0a 3653i bk9: 0a 3653i bk10: 0a 3655i bk11: 0a 3655i bk12: 0a 3655i bk13: 0a 3656i bk14: 0a 3656i bk15: 0a 3656i 

------------------------------------------------------------------------

Row_Buffer_Locality = 0.979058
Row_Buffer_Locality_read = 1.000000
Row_Buffer_Locality_write = 0.968504
Bank_Level_Parallism = 3.511965
Bank_Level_Parallism_Col = 3.507982
Bank_Level_Parallism_Ready = 2.362745
write_to_read_ratio_blp_rw_average = 0.527818
GrpLevelPara = 1.000000 

BW Util details:
bwutil = 0.278993 
total_CMD = 3656 
util_bw = 1020 
Wasted_Col = 361 
Wasted_Row = 0 
Idle = 2275 

BW Util Bottlenecks: 
RCDc_limit = 2 
RCDWRc_limit = 14 
WTRc_limit = 579 
RTWc_limit = 639 
CCDLc_limit = 0 
rwq = 0 
CCDLc_limit_alone = 0 
WTRc_limit_alone = 579 
RTWc_limit_alone = 639 

Commands details: 
total_CMD = 3656 
n_nop = 3142 
Read = 0 
Write = 254 
L2_Alloc = 256 
L2_WB = 0 
n_act = 4 
n_pre = 0 
n_ref = 0 
n_req = 191 
total_req = 510 

Dual Bus Interface Util: 
issued_total_row = 4 
issued_total_col = 510 
Row_Bus_Util =  0.001094 
CoL_Bus_Util = 0.139497 
Either_Row_CoL_Bus_Util = 0.140591 
Issued_on_Two_Bus_Simul_Util = 0.000000 
issued_two_Eff = 0.000000 
queue_avg = 16.987692 


dram_util_bins: 0 0 0 0 0 0 0 0 0 0
dram_eff_bins: 0 0 0 0 0 0 0 0 0 0
mrqq: max=64 avg=16.9877
Memory Partition 3: 
Cache L2_bank_006:
MSHR contents

Cache L2_bank_007:
MSHR contents

In Dram Latency Queue (total = 0): 
DRAM[3]: 16 bks, busW=4 BL=8 CL=12, tRRD=6 tCCD=2, tRCD=12 tRAS=28 tRP=12 tRC=40
n_cmd=3656 n_nop=3140 n_act=4 n_pre=0 n_ref_event=0 n_req=192 n_rd=0 n_rd_L2_A=256 n_write=256 n_wr_bk=0 bw_util=0.2801
n_activity=1457 dram_eff=0.7028
bk0: 0a 3656i bk1: 0a 3657i bk2: 0a 3657i bk3: 0a 3659i bk4: 64a 2496i bk5: 64a 2547i bk6: 64a 2490i bk7: 64a 2497i bk8: 0a 3653i bk9: 0a 3654i bk10: 0a 3655i bk11: 0a 3655i bk12: 0a 3655i bk13: 0a 3655i bk14: 0a 3655i bk15: 0a 3656i 

------------------------------------------------------------------------

Row_Buffer_Locality = 0.979167
Row_Buffer_Locality_read = 1.000000
Row_Buffer_Locality_write = 0.968750
Bank_Level_Parallism = 3.359046
Bank_Level_Parallism_Col = 3.358848
Bank_Level_Parallism_Ready = 2.265625
write_to_read_ratio_blp_rw_average = 0.514513
GrpLevelPara = 1.000000 

BW Util details:
bwutil = 0.280088 
total_CMD = 3656 
util_bw = 1024 
Wasted_Col = 405 
Wasted_Row = 0 
Idle = 2227 

BW Util Bottlenecks: 
RCDc_limit = 3 
RCDWRc_limit = 21 
WTRc_limit = 578 
RTWc_limit = 640 
CCDLc_limit = 0 
rwq = 0 
CCDLc_limit_alone = 0 
WTRc_limit_alone = 578 
RTWc_limit_alone = 640 

Commands details: 
total_CMD = 3656 
n_nop = 3140 
Read = 0 
Write = 256 
L2_Alloc = 256 
L2_WB = 0 
n_act = 4 
n_pre = 0 
n_ref = 0 
n_req = 192 
total_req = 512 

Dual Bus Interface Util: 
issued_total_row = 4 
issued_total_col = 512 
Row_Bus_Util =  0.001094 
CoL_Bus_Util = 0.140044 
Either_Row_CoL_Bus_Util = 0.141138 
Issued_on_Two_Bus_Simul_Util = 0.000000 
issued_two_Eff = 0.000000 
queue_avg = 17.308807 


dram_util_bins: 0 0 0 0 0 0 0 0 0 0
dram_eff_bins: 0 0 0 0 0 0 0 0 0 0
mrqq: max=64 avg=17.3088
Memory Partition 4: 
Cache L2_bank_008:
MSHR contents

Cache L2_bank_009:
MSHR contents

In Dram Latency Queue (total = 0): 
DRAM[4]: 16 bks, busW=4 BL=8 CL=12, tRRD=6 tCCD=2, tRCD=12 tRAS=28 tRP=12 tRC=40
n_cmd=3656 n_nop=3142 n_act=4 n_pre=0 n_ref_event=0 n_req=191 n_rd=0 n_rd_L2_A=256 n_write=254 n_wr_bk=0 bw_util=0.279
n_activity=1432 dram_eff=0.7123
bk0: 0a 3656i bk1: 0a 3658i bk2: 0a 3658i bk3: 0a 3658i bk4: 64a 2506i bk5: 64a 2499i bk6: 64a 2464i bk7: 64a 2441i bk8: 0a 3653i bk9: 0a 3654i bk10: 0a 3654i bk11: 0a 3654i bk12: 0a 3655i bk13: 0a 3656i bk14: 0a 3656i bk15: 0a 3656i 

------------------------------------------------------------------------

Row_Buffer_Locality = 0.979058
Row_Buffer_Locality_read = 1.000000
Row_Buffer_Locality_write = 0.968504
Bank_Level_Parallism = 3.505723
Bank_Level_Parallism_Col = 3.507880
Bank_Level_Parallism_Ready = 2.378431
write_to_read_ratio_blp_rw_average = 0.525669
GrpLevelPara = 1.000000 

BW Util details:
bwutil = 0.278993 
total_CMD = 3656 
util_bw = 1020 
Wasted_Col = 381 
Wasted_Row = 0 
Idle = 2255 

BW Util Bottlenecks: 
RCDc_limit = 3 
RCDWRc_limit = 22 
WTRc_limit = 583 
RTWc_limit = 627 
CCDLc_limit = 0 
rwq = 0 
CCDLc_limit_alone = 0 
WTRc_limit_alone = 583 
RTWc_limit_alone = 627 

Commands details: 
total_CMD = 3656 
n_nop = 3142 
Read = 0 
Write = 254 
L2_Alloc = 256 
L2_WB = 0 
n_act = 4 
n_pre = 0 
n_ref = 0 
n_req = 191 
total_req = 510 

Dual Bus Interface Util: 
issued_total_row = 4 
issued_total_col = 510 
Row_Bus_Util =  0.001094 
CoL_Bus_Util = 0.139497 
Either_Row_CoL_Bus_Util = 0.140591 
Issued_on_Two_Bus_Simul_Util = 0.000000 
issued_two_Eff = 0.000000 
queue_avg = 17.825766 


dram_util_bins: 0 0 0 0 0 0 0 0 0 0
dram_eff_bins: 0 0 0 0 0 0 0 0 0 0
mrqq: max=64 avg=17.8258
Memory Partition 5: 
Cache L2_bank_010:
MSHR contents

Cache L2_bank_011:
MSHR contents

In Dram Latency Queue (total = 0): 
DRAM[5]: 16 bks, busW=4 BL=8 CL=12, tRRD=6 tCCD=2, tRCD=12 tRAS=28 tRP=12 tRC=40
n_cmd=3656 n_nop=3144 n_act=4 n_pre=0 n_ref_event=0 n_req=190 n_rd=0 n_rd_L2_A=256 n_write=252 n_wr_bk=0 bw_util=0.2779
n_activity=1431 dram_eff=0.71
bk0: 0a 3656i bk1: 0a 3657i bk2: 0a 3657i bk3: 0a 3658i bk4: 64a 2531i bk5: 64a 2501i bk6: 64a 2481i bk7: 64a 2491i bk8: 0a 3653i bk9: 0a 3656i bk10: 0a 3656i bk11: 0a 3656i bk12: 0a 3656i bk13: 0a 3656i bk14: 0a 3656i bk15: 0a 3656i 

------------------------------------------------------------------------

Row_Buffer_Locality = 0.978947
Row_Buffer_Locality_read = 1.000000
Row_Buffer_Locality_write = 0.968254
Bank_Level_Parallism = 3.407801
Bank_Level_Parallism_Col = 3.405962
Bank_Level_Parallism_Ready = 2.301181
write_to_read_ratio_blp_rw_average = 0.521469
GrpLevelPara = 1.000000 

BW Util details:
bwutil = 0.277899 
total_CMD = 3656 
util_bw = 1016 
Wasted_Col = 396 
Wasted_Row = 0 
Idle = 2244 

BW Util Bottlenecks: 
RCDc_limit = 1 
RCDWRc_limit = 14 
WTRc_limit = 576 
RTWc_limit = 635 
CCDLc_limit = 0 
rwq = 0 
CCDLc_limit_alone = 0 
WTRc_limit_alone = 576 
RTWc_limit_alone = 635 

Commands details: 
total_CMD = 3656 
n_nop = 3144 
Read = 0 
Write = 252 
L2_Alloc = 256 
L2_WB = 0 
n_act = 4 
n_pre = 0 
n_ref = 0 
n_req = 190 
total_req = 508 

Dual Bus Interface Util: 
issued_total_row = 4 
issued_total_col = 508 
Row_Bus_Util =  0.001094 
CoL_Bus_Util = 0.138950 
Either_Row_CoL_Bus_Util = 0.140044 
Issued_on_Two_Bus_Simul_Util = 0.000000 
issued_two_Eff = 0.000000 
queue_avg = 17.320843 


dram_util_bins: 0 0 0 0 0 0 0 0 0 0
dram_eff_bins: 0 0 0 0 0 0 0 0 0 0
mrqq: max=64 avg=17.3208
Memory Partition 6: 
Cache L2_bank_012:
MSHR contents

Cache L2_bank_013:
MSHR contents

In Dram Latency Queue (total = 0): 
DRAM[6]: 16 bks, busW=4 BL=8 CL=12, tRRD=6 tCCD=2, tRCD=12 tRAS=28 tRP=12 tRC=40
n_cmd=3656 n_nop=3144 n_act=4 n_pre=0 n_ref_event=0 n_req=190 n_rd=0 n_rd_L2_A=256 n_write=252 n_wr_bk=0 bw_util=0.2779
n_activity=1383 dram_eff=0.7346
bk0: 0a 3656i bk1: 0a 3658i bk2: 0a 3658i bk3: 0a 3658i bk4: 64a 2526i bk5: 64a 2505i bk6: 64a 2466i bk7: 64a 2437i bk8: 0a 3653i bk9: 0a 3654i bk10: 0a 3655i bk11: 0a 3655i bk12: 0a 3655i bk13: 0a 3656i bk14: 0a 3656i bk15: 0a 3656i 

------------------------------------------------------------------------

Row_Buffer_Locality = 0.978947
Row_Buffer_Locality_read = 1.000000
Row_Buffer_Locality_write = 0.968254
Bank_Level_Parallism = 3.580029
Bank_Level_Parallism_Col = 3.577941
Bank_Level_Parallism_Ready = 2.311024
write_to_read_ratio_blp_rw_average = 0.519485
GrpLevelPara = 1.000000 

BW Util details:
bwutil = 0.277899 
total_CMD = 3656 
util_bw = 1016 
Wasted_Col = 348 
Wasted_Row = 0 
Idle = 2292 

BW Util Bottlenecks: 
RCDc_limit = 3 
RCDWRc_limit = 16 
WTRc_limit = 589 
RTWc_limit = 620 
CCDLc_limit = 0 
rwq = 0 
CCDLc_limit_alone = 0 
WTRc_limit_alone = 589 
RTWc_limit_alone = 620 

Commands details: 
total_CMD = 3656 
n_nop = 3144 
Read = 0 
Write = 252 
L2_Alloc = 256 
L2_WB = 0 
n_act = 4 
n_pre = 0 
n_ref = 0 
n_req = 190 
total_req = 508 

Dual Bus Interface Util: 
issued_total_row = 4 
issued_total_col = 508 
Row_Bus_Util =  0.001094 
CoL_Bus_Util = 0.138950 
Either_Row_CoL_Bus_Util = 0.140044 
Issued_on_Two_Bus_Simul_Util = 0.000000 
issued_two_Eff = 0.000000 
queue_avg = 17.450766 


dram_util_bins: 0 0 0 0 0 0 0 0 0 0
dram_eff_bins: 0 0 0 0 0 0 0 0 0 0
mrqq: max=64 avg=17.4508
Memory Partition 7: 
Cache L2_bank_014:
MSHR contents

Cache L2_bank_015:
MSHR contents

In Dram Latency Queue (total = 0): 
DRAM[7]: 16 bks, busW=4 BL=8 CL=12, tRRD=6 tCCD=2, tRCD=12 tRAS=28 tRP=12 tRC=40
n_cmd=3656 n_nop=3144 n_act=4 n_pre=0 n_ref_event=0 n_req=190 n_rd=0 n_rd_L2_A=256 n_write=252 n_wr_bk=0 bw_util=0.2779
n_activity=1429 dram_eff=0.711
bk0: 0a 3656i bk1: 0a 3657i bk2: 0a 3658i bk3: 0a 3659i bk4: 64a 2513i bk5: 64a 2532i bk6: 64a 2475i bk7: 64a 2494i bk8: 0a 3654i bk9: 0a 3655i bk10: 0a 3655i bk11: 0a 3655i bk12: 0a 3655i bk13: 0a 3655i bk14: 0a 3655i bk15: 0a 3656i 

------------------------------------------------------------------------

Row_Buffer_Locality = 0.978947
Row_Buffer_Locality_read = 1.000000
Row_Buffer_Locality_write = 0.968254
Bank_Level_Parallism = 3.410511
Bank_Level_Parallism_Col = 3.407960
Bank_Level_Parallism_Ready = 2.265226
write_to_read_ratio_blp_rw_average = 0.508055
GrpLevelPara = 1.000000 

BW Util details:
bwutil = 0.277899 
total_CMD = 3656 
util_bw = 1016 
Wasted_Col = 394 
Wasted_Row = 0 
Idle = 2246 

BW Util Bottlenecks: 
RCDc_limit = 2 
RCDWRc_limit = 18 
WTRc_limit = 605 
RTWc_limit = 625 
CCDLc_limit = 0 
rwq = 0 
CCDLc_limit_alone = 0 
WTRc_limit_alone = 605 
RTWc_limit_alone = 625 

Commands details: 
total_CMD = 3656 
n_nop = 3144 
Read = 0 
Write = 252 
L2_Alloc = 256 
L2_WB = 0 
n_act = 4 
n_pre = 0 
n_ref = 0 
n_req = 190 
total_req = 508 

Dual Bus Interface Util: 
issued_total_row = 4 
issued_total_col = 508 
Row_Bus_Util =  0.001094 
CoL_Bus_Util = 0.138950 
Either_Row_CoL_Bus_Util = 0.140044 
Issued_on_Two_Bus_Simul_Util = 0.000000 
issued_two_Eff = 0.000000 
queue_avg = 17.388128 


dram_util_bins: 0 0 0 0 0 0 0 0 0 0
dram_eff_bins: 0 0 0 0 0 0 0 0 0 0
mrqq: max=64 avg=17.3881

========= L2 cache stats =========
L2_cache_bank[0]: Access = 168, Miss = 34, Miss_rate = 0.202, Pending_hits = 70, Reservation_fails = 9
L2_cache_bank[1]: Access = 148, Miss = 33, Miss_rate = 0.223, Pending_hits = 50, Reservation_fails = 16
L2_cache_bank[2]: Access = 128, Miss = 32, Miss_rate = 0.250, Pending_hits = 32, Reservation_fails = 6
L2_cache_bank[3]: Access = 128, Miss = 32, Miss_rate = 0.250, Pending_hits = 32, Reservation_fails = 16
L2_cache_bank[4]: Access = 128, Miss = 32, Miss_rate = 0.250, Pending_hits = 32, Reservation_fails = 6
L2_cache_bank[5]: Access = 128, Miss = 32, Miss_rate = 0.250, Pending_hits = 31, Reservation_fails = 13
L2_cache_bank[6]: Access = 128, Miss = 32, Miss_rate = 0.250, Pending_hits = 32, Reservation_fails = 11
L2_cache_bank[7]: Access = 128, Miss = 32, Miss_rate = 0.250, Pending_hits = 32, Reservation_fails = 8
L2_cache_bank[8]: Access = 128, Miss = 32, Miss_rate = 0.250, Pending_hits = 32, Reservation_fails = 5
L2_cache_bank[9]: Access = 128, Miss = 32, Miss_rate = 0.250, Pending_hits = 31, Reservation_fails = 6
L2_cache_bank[10]: Access = 128, Miss = 32, Miss_rate = 0.250, Pending_hits = 32, Reservation_fails = 4
L2_cache_bank[11]: Access = 128, Miss = 32, Miss_rate = 0.250, Pending_hits = 30, Reservation_fails = 4
L2_cache_bank[12]: Access = 128, Miss = 32, Miss_rate = 0.250, Pending_hits = 32, Reservation_fails = 9
L2_cache_bank[13]: Access = 128, Miss = 32, Miss_rate = 0.250, Pending_hits = 30, Reservation_fails = 5
L2_cache_bank[14]: Access = 128, Miss = 32, Miss_rate = 0.250, Pending_hits = 32, Reservation_fails = 7
L2_cache_bank[15]: Access = 128, Miss = 32, Miss_rate = 0.250, Pending_hits = 30, Reservation_fails = 4
L2_total_cache_accesses = 2108
L2_total_cache_misses = 515
L2_total_cache_miss_rate = 0.2443
L2_total_cache_pending_hits = 560
L2_total_cache_reservation_fails = 129
L2_total_cache_breakdown:
	L2_cache_stats_breakdown[GLOBAL_ACC_R][HIT] = 1024
	L2_cache_stats_breakdown[GLOBAL_ACC_R][HIT_RESERVED] = 0
	L2_cache_stats_breakdown[GLOBAL_ACC_R][MISS] = 0
	L2_cache_stats_breakdown[GLOBAL_ACC_R][RESERVATION_FAIL] = 0
	L2_cache_stats_breakdown[GLOBAL_ACC_R][SECTOR_MISS] = 0
	L2_cache_stats_breakdown[GLOBAL_ACC_R][MSHR_HIT] = 0
	L2_cache_stats_breakdown[LOCAL_ACC_R][HIT] = 0
	L2_cache_stats_breakdown[LOCAL_ACC_R][HIT_RESERVED] = 0
	L2_cache_stats_breakdown[LOCAL_ACC_R][MISS] = 0
	L2_cache_stats_breakdown[LOCAL_ACC_R][RESERVATION_FAIL] = 0
	L2_cache_stats_breakdown[LOCAL_ACC_R][SECTOR_MISS] = 0
	L2_cache_stats_breakdown[LOCAL_ACC_R][MSHR_HIT] = 0
	L2_cache_stats_breakdown[CONST_ACC_R][HIT] = 0
	L2_cache_stats_breakdown[CONST_ACC_R][HIT_RESERVED] = 19
	L2_cache_stats_breakdown[CONST_ACC_R][MISS] = 1
	L2_cache_stats_breakdown[CONST_ACC_R][RESERVATION_FAIL] = 0
	L2_cache_stats_breakdown[CONST_ACC_R][SECTOR_MISS] = 0
	L2_cache_stats_breakdown[CONST_ACC_R][MSHR_HIT] = 19
	L2_cache_stats_breakdown[TEXTURE_ACC_R][HIT] = 0
	L2_cache_stats_breakdown[TEXTURE_ACC_R][HIT_RESERVED] = 0
	L2_cache_stats_breakdown[TEXTURE_ACC_R][MISS] = 0
	L2_cache_stats_breakdown[TEXTURE_ACC_R][RESERVATION_FAIL] = 0
	L2_cache_stats_breakdown[TEXTURE_ACC_R][SECTOR_MISS] = 0
	L2_cache_stats_breakdown[TEXTURE_ACC_R][MSHR_HIT] = 0
	L2_cache_stats_breakdown[GLOBAL_ACC_W][HIT] = 9
	L2_cache_stats_breakdown[GLOBAL_ACC_W][HIT_RESERVED] = 503
	L2_cache_stats_breakdown[GLOBAL_ACC_W][MISS] = 512
	L2_cache_stats_breakdown[GLOBAL_ACC_W][RESERVATION_FAIL] = 129
	L2_cache_stats_breakdown[GLOBAL_ACC_W][SECTOR_MISS] = 0
	L2_cache_stats_breakdown[GLOBAL_ACC_W][MSHR_HIT] = 0
	L2_cache_stats_breakdown[LOCAL_ACC_W][HIT] = 0
	L2_cache_stats_breakdown[LOCAL_ACC_W][HIT_RESERVED] = 0
	L2_cache_stats_breakdown[LOCAL_ACC_W][MISS] = 0
	L2_cache_stats_breakdown[LOCAL_ACC_W][RESERVATION_FAIL] = 0
	L2_cache_stats_breakdown[LOCAL_ACC_W][SECTOR_MISS] = 0
	L2_cache_stats_breakdown[LOCAL_ACC_W][MSHR_HIT] = 0
	L2_cache_stats_breakdown[L1_WRBK_ACC][HIT] = 0
	L2_cache_stats_breakdown[L1_WRBK_ACC][HIT_RESERVED] = 0
	L2_cache_stats_breakdown[L1_WRBK_ACC][MISS] = 0
	L2_cache_stats_breakdown[L1_WRBK_ACC][RESERVATION_FAIL] = 0
	L2_cache_stats_breakdown[L1_WRBK_ACC][SECTOR_MISS] = 0
	L2_cache_stats_breakdown[L1_WRBK_ACC][MSHR_HIT] = 0
	L2_cache_stats_breakdown[L2_WRBK_ACC][HIT] = 0
	L2_cache_stats_breakdown[L2_WRBK_ACC][HIT_RESERVED] = 0
	L2_cache_stats_breakdown[L2_WRBK_ACC][MISS] = 0
	L2_cache_stats_breakdown[L2_WRBK_ACC][RESERVATION_FAIL] = 0
	L2_cache_stats_breakdown[L2_WRBK_ACC][SECTOR_MISS] = 0
	L2_cache_stats_breakdown[L2_WRBK_ACC][MSHR_HIT] = 0
	L2_cache_stats_breakdown[INST_ACC_R][HIT] = 0
	L2_cache_stats_breakdown[INST_ACC_R][HIT_RESERVED] = 38
	L2_cache_stats_breakdown[INST_ACC_R][MISS] = 2
	L2_cache_stats_breakdown[INST_ACC_R][RESERVATION_FAIL] = 0
	L2_cache_stats_breakdown[INST_ACC_R][SECTOR_MISS] = 0
	L2_cache_stats_breakdown[INST_ACC_R][MSHR_HIT] = 38
	L2_cache_stats_breakdown[L1_WR_ALLOC_R][HIT] = 0
	L2_cache_stats_breakdown[L1_WR_ALLOC_R][HIT_RESERVED] = 0
	L2_cache_stats_breakdown[L1_WR_ALLOC_R][MISS] = 0
	L2_cache_stats_breakdown[L1_WR_ALLOC_R][RESERVATION_FAIL] = 0
	L2_cache_stats_breakdown[L1_WR_ALLOC_R][SECTOR_MISS] = 0
	L2_cache_stats_breakdown[L1_WR_ALLOC_R][MSHR_HIT] = 0
	L2_cache_stats_breakdown[L2_WR_ALLOC_R][HIT] = 0
	L2_cache_stats_breakdown[L2_WR_ALLOC_R][HIT_RESERVED] = 0
	L2_cache_stats_breakdown[L2_WR_ALLOC_R][MISS] = 0
	L2_cache_stats_breakdown[L2_WR_ALLOC_R][RESERVATION_FAIL] = 0
	L2_cache_stats_breakdown[L2_WR_ALLOC_R][SECTOR_MISS] = 0
	L2_cache_stats_breakdown[L2_WR_ALLOC_R][MSHR_HIT] = 503
	L2_cache_stats_breakdown[GLOBAL_ACC_R][TOTAL_ACCESS] = 1024
	L2_cache_stats_breakdown[CONST_ACC_R][TOTAL_ACCESS] = 20
	L2_cache_stats_breakdown[GLOBAL_ACC_W][TOTAL_ACCESS] = 1024
	L2_cache_stats_breakdown[INST_ACC_R][TOTAL_ACCESS] = 40
L2_total_cache_reservation_fail_breakdown:
	L2_cache_stats_fail_breakdown[GLOBAL_ACC_W][MISS_QUEUE_FULL] = 129
L2_cache_data_port_util = 0.060
L2_cache_fill_port_util = 0.060

icnt_total_pkts_mem_to_simt=4356
icnt_total_pkts_simt_to_mem=4156
LD_mem_lat_dist  0 0 0 0 0 0 0 0 0 0 0 0 0 0 0 0 0 0 0 0 0 0 0 0 0 0 0
ST_mem_lat_dist  0 0 0 0 0 0 0 0 0 0 0 0 0 0 0 0 0 0 0 0 0 0 0 0 0 0 0
----------------------------Interconnect-DETAILS--------------------------------
Class 0:
Packet latency average = 28.8956
	minimum = 6
	maximum = 312
Network latency average = 20.5757
	minimum = 6
	maximum = 305
Slowest packet = 1504
Flit latency average = 21.7151
	minimum = 6
	maximum = 303
Slowest flit = 2413
Fragmentation average = 0.694023
	minimum = 0
	maximum = 238
Injected packet rate average = 0.0214119
	minimum = 0 (at node 36)
	maximum = 0.0426612 (at node 20)
Accepted packet rate average = 0.0214119
	minimum = 0 (at node 36)
	maximum = 0.0426612 (at node 20)
Injected flit rate average = 0.0432301
	minimum = 0 (at node 36)
	maximum = 0.105637 (at node 20)
Accepted flit rate average= 0.0432301
	minimum = 0 (at node 36)
	maximum = 0.0751651 (at node 20)
Injected packet length average = 2.01898
Accepted packet length average = 2.01898
Total in-flight flits = 0 (0 measured)
====== Overall Traffic Statistics ======
====== Traffic class 0 ======
Packet latency average = 28.8956 (1 samples)
	minimum = 6 (1 samples)
	maximum = 312 (1 samples)
Network latency average = 20.5757 (1 samples)
	minimum = 6 (1 samples)
	maximum = 305 (1 samples)
Flit latency average = 21.7151 (1 samples)
	minimum = 6 (1 samples)
	maximum = 303 (1 samples)
Fragmentation average = 0.694023 (1 samples)
	minimum = 0 (1 samples)
	maximum = 238 (1 samples)
Injected packet rate average = 0.0214119 (1 samples)
[...]
WTRc_limit_alone = 578 
RTWc_limit_alone = 638 

Commands details: 
total_CMD = 38733 
n_nop = 38207 
Read = 8 
Write = 256 
L2_Alloc = 256 
L2_WB = 0 
n_act = 6 
n_pre = 0 
n_ref = 0 
n_req = 194 
total_req = 520 

Dual Bus Interface Util: 
issued_total_row = 6 
issued_total_col = 520 
Row_Bus_Util =  0.000155 
CoL_Bus_Util = 0.013425 
Either_Row_CoL_Bus_Util = 0.013580 
Issued_on_Two_Bus_Simul_Util = 0.000000 
issued_two_Eff = 0.000000 
queue_avg = 1.675135 


dram_util_bins: 0 0 0 0 0 0 0 0 0 0
dram_eff_bins: 0 0 0 0 0 0 0 0 0 0
mrqq: max=64 avg=1.67513
Memory Partition 2: 
Cache L2_bank_004:
MSHR contents

Cache L2_bank_005:
MSHR contents

In Dram Latency Queue (total = 0): 
DRAM[2]: 16 bks, busW=4 BL=8 CL=12, tRRD=6 tCCD=2, tRCD=12 tRAS=28 tRP=12 tRC=40
n_cmd=38733 n_nop=38209 n_act=6 n_pre=0 n_ref_event=0 n_req=193 n_rd=8 n_rd_L2_A=256 n_write=254 n_wr_bk=0 bw_util=0.02675
n_activity=1480 dram_eff=0.7
bk0: 4a 38715i bk1: 4a 38715i bk2: 0a 38735i bk3: 0a 38735i bk4: 64a 37636i bk5: 64a 37588i bk6: 64a 37537i bk7: 64a 37517i bk8: 0a 38730i bk9: 0a 38730i bk10: 0a 38732i bk11: 0a 38732i bk12: 0a 38732i bk13: 0a 38734i bk14: 0a 38734i bk15: 0a 38734i 

------------------------------------------------------------------------

Row_Buffer_Locality = 0.968912
Row_Buffer_Locality_read = 0.969697
Row_Buffer_Locality_write = 0.968504
Bank_Level_Parallism = 3.444601
Bank_Level_Parallism_Col = 3.444130
Bank_Level_Parallism_Ready = 2.341699
write_to_read_ratio_blp_rw_average = 0.514380
GrpLevelPara = 1.000000 

BW Util details:
bwutil = 0.026747 
total_CMD = 38733 
util_bw = 1036 
Wasted_Col = 385 
Wasted_Row = 0 
Idle = 37312 

BW Util Bottlenecks: 
RCDc_limit = 26 
RCDWRc_limit = 14 
WTRc_limit = 579 
RTWc_limit = 639 
CCDLc_limit = 0 
rwq = 0 
CCDLc_limit_alone = 0 
WTRc_limit_alone = 579 
RTWc_limit_alone = 639 

Commands details: 
total_CMD = 38733 
n_nop = 38209 
Read = 8 
Write = 254 
L2_Alloc = 256 
L2_WB = 0 
n_act = 6 
n_pre = 0 
n_ref = 0 
n_req = 193 
total_req = 518 

Dual Bus Interface Util: 
issued_total_row = 6 
issued_total_col = 518 
Row_Bus_Util =  0.000155 
CoL_Bus_Util = 0.013374 
Either_Row_CoL_Bus_Util = 0.013529 
Issued_on_Two_Bus_Simul_Util = 0.000000 
issued_two_Eff = 0.000000 
queue_avg = 1.603465 


dram_util_bins: 0 0 0 0 0 0 0 0 0 0
dram_eff_bins: 0 0 0 0 0 0 0 0 0 0
mrqq: max=64 avg=1.60346
Memory Partition 3: 
Cache L2_bank_006:
MSHR contents

Cache L2_bank_007:
MSHR contents

In Dram Latency Queue (total = 0): 
DRAM[3]: 16 bks, busW=4 BL=8 CL=12, tRRD=6 tCCD=2, tRCD=12 tRAS=28 tRP=12 tRC=40
n_cmd=38733 n_nop=38207 n_act=6 n_pre=0 n_ref_event=0 n_req=194 n_rd=8 n_rd_L2_A=256 n_write=256 n_wr_bk=0 bw_util=0.02685
n_activity=1537 dram_eff=0.6766
bk0: 4a 38715i bk1: 4a 38715i bk2: 0a 38734i bk3: 0a 38736i bk4: 64a 37573i bk5: 64a 37624i bk6: 64a 37567i bk7: 64a 37574i bk8: 0a 38730i bk9: 0a 38731i bk10: 0a 38732i bk11: 0a 38732i bk12: 0a 38732i bk13: 0a 38732i bk14: 0a 38732i bk15: 0a 38733i 

------------------------------------------------------------------------

Row_Buffer_Locality = 0.969072
Row_Buffer_Locality_read = 0.969697
Row_Buffer_Locality_write = 0.968750
Bank_Level_Parallism = 3.297814
Bank_Level_Parallism_Col = 3.300685
Bank_Level_Parallism_Ready = 2.246154
write_to_read_ratio_blp_rw_average = 0.501826
GrpLevelPara = 1.000000 

BW Util details:
bwutil = 0.026850 
total_CMD = 38733 
util_bw = 1040 
Wasted_Col = 429 
Wasted_Row = 0 
Idle = 37264 

BW Util Bottlenecks: 
RCDc_limit = 27 
RCDWRc_limit = 21 
WTRc_limit = 578 
RTWc_limit = 640 
CCDLc_limit = 0 
rwq = 0 
CCDLc_limit_alone = 0 
WTRc_limit_alone = 578 
RTWc_limit_alone = 640 

Commands details: 
total_CMD = 38733 
n_nop = 38207 
Read = 8 
Write = 256 
L2_Alloc = 256 
L2_WB = 0 
n_act = 6 
n_pre = 0 
n_ref = 0 
n_req = 194 
total_req = 520 

Dual Bus Interface Util: 
issued_total_row = 6 
issued_total_col = 520 
Row_Bus_Util =  0.000155 
CoL_Bus_Util = 0.013425 
Either_Row_CoL_Bus_Util = 0.013580 
Issued_on_Two_Bus_Simul_Util = 0.000000 
issued_two_Eff = 0.000000 
queue_avg = 1.633775 


dram_util_bins: 0 0 0 0 0 0 0 0 0 0
dram_eff_bins: 0 0 0 0 0 0 0 0 0 0
mrqq: max=64 avg=1.63377
Memory Partition 4: 
Cache L2_bank_008:
MSHR contents

Cache L2_bank_009:
MSHR contents

In Dram Latency Queue (total = 0): 
DRAM[4]: 16 bks, busW=4 BL=8 CL=12, tRRD=6 tCCD=2, tRCD=12 tRAS=28 tRP=12 tRC=40
n_cmd=38733 n_nop=38209 n_act=6 n_pre=0 n_ref_event=0 n_req=193 n_rd=8 n_rd_L2_A=256 n_write=254 n_wr_bk=0 bw_util=0.02675
n_activity=1512 dram_eff=0.6852
bk0: 4a 38715i bk1: 4a 38716i bk2: 0a 38734i bk3: 0a 38734i bk4: 64a 37582i bk5: 64a 37575i bk6: 64a 37540i bk7: 64a 37517i bk8: 0a 38729i bk9: 0a 38732i bk10: 0a 38732i bk11: 0a 38732i bk12: 0a 38733i bk13: 0a 38734i bk14: 0a 38734i bk15: 0a 38734i 

------------------------------------------------------------------------

Row_Buffer_Locality = 0.968912
Row_Buffer_Locality_read = 0.969697
Row_Buffer_Locality_write = 0.968504
Bank_Level_Parallism = 3.439415
Bank_Level_Parallism_Col = 3.444832
Bank_Level_Parallism_Ready = 2.357143
write_to_read_ratio_blp_rw_average = 0.512453
GrpLevelPara = 1.000000 

BW Util details:
bwutil = 0.026747 
total_CMD = 38733 
util_bw = 1036 
Wasted_Col = 405 
Wasted_Row = 0 
Idle = 37292 

BW Util Bottlenecks: 
RCDc_limit = 27 
RCDWRc_limit = 22 
WTRc_limit = 583 
RTWc_limit = 627 
CCDLc_limit = 0 
rwq = 0 
CCDLc_limit_alone = 0 
WTRc_limit_alone = 583 
RTWc_limit_alone = 627 

Commands details: 
total_CMD = 38733 
n_nop = 38209 
Read = 8 
Write = 254 
L2_Alloc = 256 
L2_WB = 0 
n_act = 6 
n_pre = 0 
n_ref = 0 
n_req = 193 
total_req = 518 

Dual Bus Interface Util: 
issued_total_row = 6 
issued_total_col = 518 
Row_Bus_Util =  0.000155 
CoL_Bus_Util = 0.013374 
Either_Row_CoL_Bus_Util = 0.013529 
Issued_on_Two_Bus_Simul_Util = 0.000000 
issued_two_Eff = 0.000000 
queue_avg = 1.682570 


dram_util_bins: 0 0 0 0 0 0 0 0 0 0
dram_eff_bins: 0 0 0 0 0 0 0 0 0 0
mrqq: max=64 avg=1.68257
Memory Partition 5: 
Cache L2_bank_010:
MSHR contents

Cache L2_bank_011:
MSHR contents

In Dram Latency Queue (total = 0): 
DRAM[5]: 16 bks, busW=4 BL=8 CL=12, tRRD=6 tCCD=2, tRCD=12 tRAS=28 tRP=12 tRC=40
n_cmd=38733 n_nop=38211 n_act=6 n_pre=0 n_ref_event=0 n_req=192 n_rd=8 n_rd_L2_A=256 n_write=252 n_wr_bk=0 bw_util=0.02664
n_activity=1511 dram_eff=0.683
bk0: 4a 38715i bk1: 4a 38715i bk2: 0a 38734i bk3: 0a 38735i bk4: 64a 37608i bk5: 64a 37578i bk6: 64a 37558i bk7: 64a 37568i bk8: 0a 38730i bk9: 0a 38733i bk10: 0a 38733i bk11: 0a 38733i bk12: 0a 38733i bk13: 0a 38733i bk14: 0a 38733i bk15: 0a 38733i 

------------------------------------------------------------------------

Row_Buffer_Locality = 0.968750
Row_Buffer_Locality_read = 0.969697
Row_Buffer_Locality_write = 0.968254
Bank_Level_Parallism = 3.344613
Bank_Level_Parallism_Col = 3.346021
Bank_Level_Parallism_Ready = 2.281008
write_to_read_ratio_blp_rw_average = 0.508478
GrpLevelPara = 1.000000 

BW Util details:
bwutil = 0.026644 
total_CMD = 38733 
util_bw = 1032 
Wasted_Col = 420 
Wasted_Row = 0 
Idle = 37281 

BW Util Bottlenecks: 
RCDc_limit = 25 
RCDWRc_limit = 14 
WTRc_limit = 576 
RTWc_limit = 635 
CCDLc_limit = 0 
rwq = 0 
CCDLc_limit_alone = 0 
WTRc_limit_alone = 576 
RTWc_limit_alone = 635 

Commands details: 
total_CMD = 38733 
n_nop = 38211 
Read = 8 
Write = 252 
L2_Alloc = 256 
L2_WB = 0 
n_act = 6 
n_pre = 0 
n_ref = 0 
n_req = 192 
total_req = 516 

Dual Bus Interface Util: 
issued_total_row = 6 
issued_total_col = 516 
Row_Bus_Util =  0.000155 
CoL_Bus_Util = 0.013322 
Either_Row_CoL_Bus_Util = 0.013477 
Issued_on_Two_Bus_Simul_Util = 0.000000 
issued_two_Eff = 0.000000 
queue_avg = 1.634911 


dram_util_bins: 0 0 0 0 0 0 0 0 0 0
dram_eff_bins: 0 0 0 0 0 0 0 0 0 0
mrqq: max=64 avg=1.63491
Memory Partition 6: 
Cache L2_bank_012:
MSHR contents

Cache L2_bank_013:
MSHR contents

In Dram Latency Queue (total = 0): 
DRAM[6]: 16 bks, busW=4 BL=8 CL=12, tRRD=6 tCCD=2, tRCD=12 tRAS=28 tRP=12 tRC=40
n_cmd=38733 n_nop=38211 n_act=6 n_pre=0 n_ref_event=0 n_req=192 n_rd=8 n_rd_L2_A=256 n_write=252 n_wr_bk=0 bw_util=0.02664
n_activity=1463 dram_eff=0.7054
bk0: 4a 38715i bk1: 4a 38716i bk2: 0a 38734i bk3: 0a 38734i bk4: 64a 37602i bk5: 64a 37581i bk6: 64a 37542i bk7: 64a 37514i bk8: 0a 38730i bk9: 0a 38731i bk10: 0a 38732i bk11: 0a 38733i bk12: 0a 38733i bk13: 0a 38734i bk14: 0a 38734i bk15: 0a 38734i 

------------------------------------------------------------------------

Row_Buffer_Locality = 0.968750
Row_Buffer_Locality_read = 0.969697
Row_Buffer_Locality_write = 0.968254
Bank_Level_Parallism = 3.510000
Bank_Level_Parallism_Col = 3.511461
Bank_Level_Parallism_Ready = 2.290698
write_to_read_ratio_blp_rw_average = 0.506089
GrpLevelPara = 1.000000 

BW Util details:
bwutil = 0.026644 
total_CMD = 38733 
util_bw = 1032 
Wasted_Col = 372 
Wasted_Row = 0 
Idle = 37329 

BW Util Bottlenecks: 
RCDc_limit = 27 
RCDWRc_limit = 16 
WTRc_limit = 589 
RTWc_limit = 620 
CCDLc_limit = 0 
rwq = 0 
CCDLc_limit_alone = 0 
WTRc_limit_alone = 589 
RTWc_limit_alone = 620 

Commands details: 
total_CMD = 38733 
n_nop = 38211 
Read = 8 
Write = 252 
L2_Alloc = 256 
L2_WB = 0 
n_act = 6 
n_pre = 0 
n_ref = 0 
n_req = 192 
total_req = 516 

Dual Bus Interface Util: 
issued_total_row = 6 
issued_total_col = 516 
Row_Bus_Util =  0.000155 
CoL_Bus_Util = 0.013322 
Either_Row_CoL_Bus_Util = 0.013477 
Issued_on_Two_Bus_Simul_Util = 0.000000 
issued_two_Eff = 0.000000 
queue_avg = 1.647174 


dram_util_bins: 0 0 0 0 0 0 0 0 0 0
dram_eff_bins: 0 0 0 0 0 0 0 0 0 0
mrqq: max=64 avg=1.64717
Memory Partition 7: 
Cache L2_bank_014:
MSHR contents

Cache L2_bank_015:
MSHR contents

In Dram Latency Queue (total = 0): 
DRAM[7]: 16 bks, busW=4 BL=8 CL=12, tRRD=6 tCCD=2, tRCD=12 tRAS=28 tRP=12 tRC=40
n_cmd=38733 n_nop=38211 n_act=6 n_pre=0 n_ref_event=0 n_req=192 n_rd=8 n_rd_L2_A=256 n_write=252 n_wr_bk=0 bw_util=0.02664
n_activity=1509 dram_eff=0.6839
bk0: 4a 38715i bk1: 4a 38715i bk2: 0a 38735i bk3: 0a 38736i bk4: 64a 37590i bk5: 64a 37609i bk6: 64a 37552i bk7: 64a 37571i bk8: 0a 38731i bk9: 0a 38732i bk10: 0a 38732i bk11: 0a 38732i bk12: 0a 38732i bk13: 0a 38732i bk14: 0a 38732i bk15: 0a 38733i 

------------------------------------------------------------------------

Row_Buffer_Locality = 0.968750
Row_Buffer_Locality_read = 0.969697
Row_Buffer_Locality_write = 0.968254
Bank_Level_Parallism = 3.347165
Bank_Level_Parallism_Col = 3.347886
Bank_Level_Parallism_Ready = 2.245648
write_to_read_ratio_blp_rw_average = 0.495380
GrpLevelPara = 1.000000 

BW Util details:
bwutil = 0.026644 
total_CMD = 38733 
util_bw = 1032 
Wasted_Col = 418 
Wasted_Row = 0 
Idle = 37283 

BW Util Bottlenecks: 
RCDc_limit = 26 
RCDWRc_limit = 18 
WTRc_limit = 605 
RTWc_limit = 625 
CCDLc_limit = 0 
rwq = 0 
CCDLc_limit_alone = 0 
WTRc_limit_alone = 605 
RTWc_limit_alone = 625 

Commands details: 
total_CMD = 38733 
n_nop = 38211 
Read = 8 
Write = 252 
L2_Alloc = 256 
L2_WB = 0 
n_act = 6 
n_pre = 0 
n_ref = 0 
n_req = 192 
total_req = 516 

Dual Bus Interface Util: 
issued_total_row = 6 
issued_total_col = 516 
Row_Bus_Util =  0.000155 
CoL_Bus_Util = 0.013322 
Either_Row_CoL_Bus_Util = 0.013477 
Issued_on_Two_Bus_Simul_Util = 0.000000 
issued_two_Eff = 0.000000 
queue_avg = 1.641262 


dram_util_bins: 0 0 0 0 0 0 0 0 0 0
dram_eff_bins: 0 0 0 0 0 0 0 0 0 0
mrqq: max=64 avg=1.64126

========= L2 cache stats =========
L2_cache_bank[0]: Access = 3004, Miss = 35, Miss_rate = 0.012, Pending_hits = 89, Reservation_fails = 9
L2_cache_bank[1]: Access = 2964, Miss = 33, Miss_rate = 0.011, Pending_hits = 50, Reservation_fails = 16
L2_cache_bank[2]: Access = 2964, Miss = 33, Miss_rate = 0.011, Pending_hits = 51, Reservation_fails = 6
L2_cache_bank[3]: Access = 2964, Miss = 33, Miss_rate = 0.011, Pending_hits = 46, Reservation_fails = 16
L2_cache_bank[4]: Access = 2964, Miss = 33, Miss_rate = 0.011, Pending_hits = 51, Reservation_fails = 6
L2_cache_bank[5]: Access = 2964, Miss = 33, Miss_rate = 0.011, Pending_hits = 50, Reservation_fails = 13
L2_cache_bank[6]: Access = 2964, Miss = 33, Miss_rate = 0.011, Pending_hits = 51, Reservation_fails = 11
L2_cache_bank[7]: Access = 2964, Miss = 33, Miss_rate = 0.011, Pending_hits = 51, Reservation_fails = 8
L2_cache_bank[8]: Access = 2964, Miss = 33, Miss_rate = 0.011, Pending_hits = 51, Reservation_fails = 5
L2_cache_bank[9]: Access = 2964, Miss = 33, Miss_rate = 0.011, Pending_hits = 50, Reservation_fails = 6
L2_cache_bank[10]: Access = 2964, Miss = 33, Miss_rate = 0.011, Pending_hits = 51, Reservation_fails = 4
L2_cache_bank[11]: Access = 2964, Miss = 33, Miss_rate = 0.011, Pending_hits = 49, Reservation_fails = 4
L2_cache_bank[12]: Access = 2964, Miss = 33, Miss_rate = 0.011, Pending_hits = 51, Reservation_fails = 9
L2_cache_bank[13]: Access = 2964, Miss = 33, Miss_rate = 0.011, Pending_hits = 49, Reservation_fails = 5
L2_cache_bank[14]: Access = 2964, Miss = 33, Miss_rate = 0.011, Pending_hits = 51, Reservation_fails = 7
L2_cache_bank[15]: Access = 2964, Miss = 33, Miss_rate = 0.011, Pending_hits = 49, Reservation_fails = 4
L2_total_cache_accesses = 47464
L2_total_cache_misses = 530
L2_total_cache_miss_rate = 0.0112
L2_total_cache_pending_hits = 840
L2_total_cache_reservation_fails = 129
L2_total_cache_breakdown:
	L2_cache_stats_breakdown[GLOBAL_ACC_R][HIT] = 16384
	L2_cache_stats_breakdown[GLOBAL_ACC_R][HIT_RESERVED] = 0
	L2_cache_stats_breakdown[GLOBAL_ACC_R][MISS] = 0
	L2_cache_stats_breakdown[GLOBAL_ACC_R][RESERVATION_FAIL] = 0
	L2_cache_stats_breakdown[GLOBAL_ACC_R][SECTOR_MISS] = 0
	L2_cache_stats_breakdown[GLOBAL_ACC_R][MSHR_HIT] = 0
	L2_cache_stats_breakdown[LOCAL_ACC_R][HIT] = 0
	L2_cache_stats_breakdown[LOCAL_ACC_R][HIT_RESERVED] = 0
	L2_cache_stats_breakdown[LOCAL_ACC_R][MISS] = 0
	L2_cache_stats_breakdown[LOCAL_ACC_R][RESERVATION_FAIL] = 0
	L2_cache_stats_breakdown[LOCAL_ACC_R][SECTOR_MISS] = 0
	L2_cache_stats_breakdown[LOCAL_ACC_R][MSHR_HIT] = 0
	L2_cache_stats_breakdown[CONST_ACC_R][HIT] = 0
	L2_cache_stats_breakdown[CONST_ACC_R][HIT_RESERVED] = 19
	L2_cache_stats_breakdown[CONST_ACC_R][MISS] = 1
	L2_cache_stats_breakdown[CONST_ACC_R][RESERVATION_FAIL] = 0
	L2_cache_stats_breakdown[CONST_ACC_R][SECTOR_MISS] = 0
	L2_cache_stats_breakdown[CONST_ACC_R][MSHR_HIT] = 19
	L2_cache_stats_breakdown[TEXTURE_ACC_R][HIT] = 0
	L2_cache_stats_breakdown[TEXTURE_ACC_R][HIT_RESERVED] = 0
	L2_cache_stats_breakdown[TEXTURE_ACC_R][MISS] = 0
	L2_cache_stats_breakdown[TEXTURE_ACC_R][RESERVATION_FAIL] = 0
	L2_cache_stats_breakdown[TEXTURE_ACC_R][SECTOR_MISS] = 0
	L2_cache_stats_breakdown[TEXTURE_ACC_R][MSHR_HIT] = 0
	L2_cache_stats_breakdown[GLOBAL_ACC_W][HIT] = 29705
	L2_cache_stats_breakdown[GLOBAL_ACC_W][HIT_RESERVED] = 503
	L2_cache_stats_breakdown[GLOBAL_ACC_W][MISS] = 512
	L2_cache_stats_breakdown[GLOBAL_ACC_W][RESERVATION_FAIL] = 129
	L2_cache_stats_breakdown[GLOBAL_ACC_W][SECTOR_MISS] = 0
	L2_cache_stats_breakdown[GLOBAL_ACC_W][MSHR_HIT] = 0
	L2_cache_stats_breakdown[LOCAL_ACC_W][HIT] = 0
	L2_cache_stats_breakdown[LOCAL_ACC_W][HIT_RESERVED] = 0
	L2_cache_stats_breakdown[LOCAL_ACC_W][MISS] = 0
	L2_cache_stats_breakdown[LOCAL_ACC_W][RESERVATION_FAIL] = 0
	L2_cache_stats_breakdown[LOCAL_ACC_W][SECTOR_MISS] = 0
	L2_cache_stats_breakdown[LOCAL_ACC_W][MSHR_HIT] = 0
	L2_cache_stats_breakdown[L1_WRBK_ACC][HIT] = 0
	L2_cache_stats_breakdown[L1_WRBK_ACC][HIT_RESERVED] = 0
	L2_cache_stats_breakdown[L1_WRBK_ACC][MISS] = 0
	L2_cache_stats_breakdown[L1_WRBK_ACC][RESERVATION_FAIL] = 0
	L2_cache_stats_breakdown[L1_WRBK_ACC][SECTOR_MISS] = 0
	L2_cache_stats_breakdown[L1_WRBK_ACC][MSHR_HIT] = 0
	L2_cache_stats_breakdown[L2_WRBK_ACC][HIT] = 0
	L2_cache_stats_breakdown[L2_WRBK_ACC][HIT_RESERVED] = 0
	L2_cache_stats_breakdown[L2_WRBK_ACC][MISS] = 0
	L2_cache_stats_breakdown[L2_WRBK_ACC][RESERVATION_FAIL] = 0
	L2_cache_stats_breakdown[L2_WRBK_ACC][SECTOR_MISS] = 0
	L2_cache_stats_breakdown[L2_WRBK_ACC][MSHR_HIT] = 0
	L2_cache_stats_breakdown[INST_ACC_R][HIT] = 5
	L2_cache_stats_breakdown[INST_ACC_R][HIT_RESERVED] = 318
	L2_cache_stats_breakdown[INST_ACC_R][MISS] = 17
	L2_cache_stats_breakdown[INST_ACC_R][RESERVATION_FAIL] = 0
	L2_cache_stats_breakdown[INST_ACC_R][SECTOR_MISS] = 0
	L2_cache_stats_breakdown[INST_ACC_R][MSHR_HIT] = 318
	L2_cache_stats_breakdown[L1_WR_ALLOC_R][HIT] = 0
	L2_cache_stats_breakdown[L1_WR_ALLOC_R][HIT_RESERVED] = 0
	L2_cache_stats_breakdown[L1_WR_ALLOC_R][MISS] = 0
	L2_cache_stats_breakdown[L1_WR_ALLOC_R][RESERVATION_FAIL] = 0
	L2_cache_stats_breakdown[L1_WR_ALLOC_R][SECTOR_MISS] = 0
	L2_cache_stats_breakdown[L1_WR_ALLOC_R][MSHR_HIT] = 0
	L2_cache_stats_breakdown[L2_WR_ALLOC_R][HIT] = 0
	L2_cache_stats_breakdown[L2_WR_ALLOC_R][HIT_RESERVED] = 0
	L2_cache_stats_breakdown[L2_WR_ALLOC_R][MISS] = 0
	L2_cache_stats_breakdown[L2_WR_ALLOC_R][RESERVATION_FAIL] = 0
	L2_cache_stats_breakdown[L2_WR_ALLOC_R][SECTOR_MISS] = 0
	L2_cache_stats_breakdown[L2_WR_ALLOC_R][MSHR_HIT] = 503
	L2_cache_stats_breakdown[GLOBAL_ACC_R][TOTAL_ACCESS] = 16384
	L2_cache_stats_breakdown[CONST_ACC_R][TOTAL_ACCESS] = 20
	L2_cache_stats_breakdown[GLOBAL_ACC_W][TOTAL_ACCESS] = 30720
	L2_cache_stats_breakdown[INST_ACC_R][TOTAL_ACCESS] = 340
L2_total_cache_reservation_fail_breakdown:
	L2_cache_stats_fail_breakdown[GLOBAL_ACC_W][MISS_QUEUE_FULL] = 129
L2_cache_data_port_util = 0.209
L2_cache_fill_port_util = 0.006

icnt_total_pkts_mem_to_simt=81632
icnt_total_pkts_simt_to_mem=92520
LD_mem_lat_dist  0 0 0 0 0 0 0 0 0 0 0 0 0 0 0 0 0 0 0 0 0 0 0 0 0 0 0
ST_mem_lat_dist  0 0 0 0 0 0 0 0 0 0 0 0 0 0 0 0 0 0 0 0 0 0 0 0 0 0 0
----------------------------Interconnect-DETAILS--------------------------------
Class 0:
Packet latency average = 12.6528
	minimum = 6
	maximum = 50
Network latency average = 10.6277
	minimum = 6
	maximum = 38
Slowest packet = 91724
Flit latency average = 10.6228
	minimum = 6
	maximum = 36
Slowest flit = 171119
Fragmentation average = 0
	minimum = 0
	maximum = 0
Injected packet rate average = 0.0422268
	minimum = 0 (at node 36)
	maximum = 0.0659794 (at node 0)
Accepted packet rate average = 0.0422268
	minimum = 0 (at node 36)
	maximum = 0.0659794 (at node 0)
Injected flit rate average = 0.0844536
	minimum = 0 (at node 36)
	maximum = 0.131959 (at node 0)
Accepted flit rate average= 0.0844536
	minimum = 0 (at node 36)
	maximum = 0.131959 (at node 0)
Injected packet length average = 2
Accepted packet length average = 2
Total in-flight flits = 0 (0 measured)
====== Overall Traffic Statistics ======
====== Traffic class 0 ======
Packet latency average = 21.1383 (16 samples)
	minimum = 6 (16 samples)
	maximum = 150.875 (16 samples)
Network latency average = 15.1591 (16 samples)
	minimum = 6 (16 samples)
	maximum = 130.125 (16 samples)
Flit latency average = 15.6637 (16 samples)
	minimum = 6 (16 samples)
	maximum = 128.25 (16 samples)
Fragmentation average = 0.0693184 (16 samples)
	minimum = 0 (16 samples)
	maximum = 33.3125 (16 samples)
Injected packet rate average = 0.044467 (16 samples)
	minimum = 0 (16 samples)
	maximum = 0.0726123 (16 samples)
Accepted packet rate average = 0.044467 (16 samples)
	minimum = 0 (16 samples)
	maximum = 0.0726123 (16 samples)
Injected flit rate average = 0.0845195 (16 samples)
	minimum = 0 (16 samples)
	maximum = 0.152149 (16 samples)
Accepted flit rate average = 0.0845195 (16 samples)
	minimum = 0 (16 samples)
	maximum = 0.139796 (16 samples)
Injected packet size average = 1.90072 (16 samples)
Accepted packet size average = 1.90072 (16 samples)
Hops average = 1 (16 samples)
----------------------------END-of-Interconnect-DETAILS-------------------------


gpgpu_simulation_time = 0 days, 0 hrs, 0 min, 24 sec (24 sec)
gpgpu_simulation_rate = 345429 (inst/sec)
gpgpu_simulation_rate = 943 (cycle/sec)
gpgpu_silicon_slowdown = 1704135x
event update
GPGPU-Sim API: cudaEventSynchronize ** waiting for event
GPGPU-Sim API: cudaEventSynchronize ** event detected
transpose diagonal          , Throughput = 0.0001 GB/s, Time = 2000.00000 ms, Size = 16384 fp32 elements, NumDevsUsed = 1, Workgroup = 256
Test passed
GPGPU-Sim: *** exit detected ***
