GPGPU-Sim version 4.2.0 (build gpgpu-sim_git-commit-13c67115070dc2f0876254a790d0238073ca364a-modified_590.0) configured with AccelWattch.

----------------------------------------------------------------------------
INFO - If you only care about PTX execution, ignore this message. GPGPU-Sim supports PTX execution in modern CUDA.
If you want to run PTXPLUS (sm_1x SASS) with a modern card configuration - set the envronment variable
$PTXAS_CUDA_INSTALL_PATH to point a CUDA version compabible with your card configurations (i.e. 8+ for PASCAL, 9+ for VOLTA etc..)
For example: "export $PTXAS_CUDA_INSTALL_PATH=/usr/local/cuda-9.1"

The following text describes why:
If you are using PTXPLUS, only sm_1x is supported and it requires that the app and simulator binaries are compiled in CUDA 4.2 or less.
The simulator requires it since CUDA headers desribe struct sizes in the exec which change from gen to gen.
The apps require 4.2 because new versions of CUDA tools have dropped parsing support for generating sm_1x
When running using modern config (i.e. volta) and PTXPLUS with CUDA 4.2, the $PTXAS_CUDA_INSTALL_PATH env variable is required to get proper register usage
(and hence occupancy) using a version of CUDA that knows the register usage on the real card.

----------------------------------------------------------------------------
setup_environment succeeded


        *** GPGPU-Sim Simulator Version 4.2.0  [build gpgpu-sim_git-commit-13c67115070dc2f0876254a790d0238073ca364a_modified_0.0] ***


GPGPU-Sim PTX: simulation mode 0 (can change with PTX_SIM_MODE_FUNC environment variable:
               1=functional simulation only, 0=detailed performance simulator)
GPGPU-Sim PTX: overriding embedded ptx with ptx file (PTX_SIM_USE_PTX_FILE is set)
GPGPU-Sim: Configuration options:

-save_embedded_ptx                      0 # saves ptx files embedded in binary as <n>.ptx
-keep                                   0 # keep intermediate files created by GPGPU-Sim when interfacing with external programs
-gpgpu_ptx_save_converted_ptxplus                    0 # Saved converted ptxplus to a file
-gpgpu_occupancy_sm_number                   86 # The SM number to pass to ptxas when getting register usage for computing GPU occupancy. This parameter is required in the config.
-ptx_opcode_latency_int           4,4,4,4,21 # Opcode latencies for integers <ADD,MAX,MUL,MAD,DIV,SHFL>Default 1,1,19,25,145,32
-ptx_opcode_latency_fp           4,4,4,4,39 # Opcode latencies for single precision floating points <ADD,MAX,MUL,MAD,DIV>Default 1,1,1,1,30
-ptx_opcode_latency_dp      64,64,64,64,330 # Opcode latencies for double precision floating points <ADD,MAX,MUL,MAD,DIV>Default 8,8,8,8,335
-ptx_opcode_latency_sfu                   21 # Opcode latencies for SFU instructionsDefault 8
-ptx_opcode_latency_tesnor                   64 # Opcode latencies for Tensor instructionsDefault 64
-ptx_opcode_initiation_int            2,2,2,2,2 # Opcode initiation intervals for integers <ADD,MAX,MUL,MAD,DIV,SHFL>Default 1,1,4,4,32,4
-ptx_opcode_initiation_fp            1,1,1,1,2 # Opcode initiation intervals for single precision floating points <ADD,MAX,MUL,MAD,DIV>Default 1,1,1,1,5
-ptx_opcode_initiation_dp      64,64,64,64,130 # Opcode initiation intervals for double precision floating points <ADD,MAX,MUL,MAD,DIV>Default 8,8,8,8,130
-ptx_opcode_initiation_sfu                    8 # Opcode initiation intervals for sfu instructionsDefault 8
-ptx_opcode_initiation_tensor                   64 # Opcode initiation intervals for tensor instructionsDefault 64
-cdp_latency         7200,8000,100,12000,1600 # CDP API latency <cudaStreamCreateWithFlags, cudaGetParameterBufferV2_init_perWarp, cudaGetParameterBufferV2_perKernel, cudaLaunchDeviceV2_init_perWarp, cudaLaunchDevicV2_perKernel>Default 7200,8000,100,12000,1600
-network_mode                           2 # Interconnection network mode
-inter_config_file                   mesh # Interconnection network config file
-icnt_in_buffer_limit                  512 # in_buffer_limit
-icnt_out_buffer_limit                  512 # out_buffer_limit
-icnt_subnets                           2 # subnets
-icnt_arbiter_algo                      1 # arbiter_algo
-icnt_verbose                           0 # inct_verbose
-icnt_grant_cycles                      1 # grant_cycles
-gpgpu_ptx_use_cuobjdump                    1 # Use cuobjdump to extract ptx and sass from binaries
-gpgpu_experimental_lib_support                    0 # Try to extract code from cuda libraries [Broken because of unknown cudaGetExportTable]
-checkpoint_option                      0 #  checkpointing flag (0 = no checkpoint)
-checkpoint_kernel                      1 #  checkpointing during execution of which kernel (1- 1st kernel)
-checkpoint_CTA                         0 #  checkpointing after # of CTA (< less than total CTA)
-resume_option                          0 #  resume flag (0 = no resume)
-resume_kernel                          0 #  Resume from which kernel (1= 1st kernel)
-resume_CTA                             0 #  resume from which CTA 
-checkpoint_CTA_t                       0 #  resume from which CTA 
-checkpoint_insn_Y                      0 #  resume from which CTA 
-gpgpu_ptx_convert_to_ptxplus                    0 # Convert SASS (native ISA) to ptxplus and run ptxplus
-gpgpu_ptx_force_max_capability                   86 # Force maximum compute capability
-gpgpu_ptx_inst_debug_to_file                    0 # Dump executed instructions' debug information to file
-gpgpu_ptx_inst_debug_file       inst_debug.txt # Executed instructions' debug output file
-gpgpu_ptx_inst_debug_thread_uid                    1 # Thread UID for executed instructions' debug output
-gpgpu_simd_model                       1 # 1 = post-dominator
-gpgpu_shader_core_pipeline              1536:32 # shader core pipeline config, i.e., {<nthread>:<warpsize>}
-gpgpu_tex_cache:l1  N:4:128:256,L:R:m:N:L,T:512:8,128:2 # per-shader L1 texture cache  (READ-ONLY) config  {<nsets>:<bsize>:<assoc>,<rep>:<wr>:<alloc>:<wr_alloc>,<mshr>:<N>:<merge>,<mq>:<rf>}
-gpgpu_const_cache:l1 N:128:64:8,L:R:f:N:L,S:2:64,4 # per-shader L1 constant memory cache  (READ-ONLY) config  {<nsets>:<bsize>:<assoc>,<rep>:<wr>:<alloc>:<wr_alloc>,<mshr>:<N>:<merge>,<mq>} 
-gpgpu_cache:il1     N:64:128:16,L:R:f:N:L,S:2:48,4 # shader L1 instruction cache config  {<nsets>:<bsize>:<assoc>,<rep>:<wr>:<alloc>:<wr_alloc>,<mshr>:<N>:<merge>,<mq>} 
-gpgpu_cache:dl1     S:4:128:256,L:T:m:L:L,A:384:48,16:0,32 # per-shader L1 data cache config  {<nsets>:<bsize>:<assoc>,<rep>:<wr>:<alloc>:<wr_alloc>,<mshr>:<N>:<merge>,<mq> | none}
-gpgpu_l1_cache_write_ratio                   25 # L1D write ratio
-gpgpu_l1_banks                         4 # The number of L1 cache banks
-gpgpu_l1_banks_byte_interleaving                   32 # l1 banks byte interleaving granularity
-gpgpu_l1_banks_hashing_function                    0 # l1 banks hashing function
-gpgpu_l1_latency                      39 # L1 Hit Latency
-gpgpu_smem_latency                    29 # smem Latency
-gpgpu_cache:dl1PrefL1                 none # per-shader L1 data cache config  {<nsets>:<bsize>:<assoc>,<rep>:<wr>:<alloc>:<wr_alloc>,<mshr>:<N>:<merge>,<mq> | none}
-gpgpu_cache:dl1PrefShared                 none # per-shader L1 data cache config  {<nsets>:<bsize>:<assoc>,<rep>:<wr>:<alloc>:<wr_alloc>,<mshr>:<N>:<merge>,<mq> | none}
-gpgpu_gmem_skip_L1D                    0 # global memory access skip L1D cache (implements -Xptxas -dlcm=cg, default=no skip)
-gpgpu_perfect_mem                      0 # enable perfect memory mode (no cache miss)
-n_regfile_gating_group                    4 # group of lanes that should be read/written together)
-gpgpu_clock_gated_reg_file                    0 # enable clock gated reg file for power calculations
-gpgpu_clock_gated_lanes                    0 # enable clock gated lanes for power calculations
-gpgpu_shader_registers                65536 # Number of registers per shader core. Limits number of concurrent CTAs. (default 8192)
-gpgpu_registers_per_block                65536 # Maximum number of registers per CTA. (default 8192)
-gpgpu_ignore_resources_limitation                    0 # gpgpu_ignore_resources_limitation (default 0)
-gpgpu_shader_cta                      32 # Maximum number of concurrent CTAs in shader (default 32)
-gpgpu_num_cta_barriers                   16 # Maximum number of named barriers per CTA (default 16)
-gpgpu_n_clusters                      48 # number of processing clusters
-gpgpu_n_cores_per_cluster                    1 # number of simd cores per cluster
-gpgpu_n_cluster_ejection_buffer_size                   32 # number of packets in ejection buffer
-gpgpu_n_ldst_response_buffer_size                    2 # number of response packets in ld/st unit ejection buffer
-gpgpu_shmem_per_block                49152 # Size of shared memory per thread block or CTA (default 48kB)
-gpgpu_shmem_size                  102400 # Size of shared memory per shader core (default 16kB)
-gpgpu_shmem_option      0,8,16,32,64,100 # Option list of shared memory sizes
-gpgpu_unified_l1d_size                  128 # Size of unified data cache(L1D + shared memory) in KB
-gpgpu_adaptive_cache_config                    1 # adaptive_cache_config
-gpgpu_shmem_sizeDefault               102400 # Size of shared memory per shader core (default 16kB)
-gpgpu_shmem_size_PrefL1                16384 # Size of shared memory per shader core (default 16kB)
-gpgpu_shmem_size_PrefShared                16384 # Size of shared memory per shader core (default 16kB)
-gpgpu_shmem_num_banks                   32 # Number of banks in the shared memory in each shader core (default 16)
-gpgpu_shmem_limited_broadcast                    0 # Limit shared memory to do one broadcast per cycle (default on)
-gpgpu_shmem_warp_parts                    1 # Number of portions a warp is divided into for shared memory bank conflict check 
-gpgpu_mem_unit_ports                    1 # The number of memory transactions allowed per core cycle
-gpgpu_shmem_warp_parts                    1 # Number of portions a warp is divided into for shared memory bank conflict check 
-gpgpu_warpdistro_shader                   -1 # Specify which shader core to collect the warp size distribution from
-gpgpu_warp_issue_shader                    0 # Specify which shader core to collect the warp issue distribution from
-gpgpu_local_mem_map                    1 # Mapping from local memory space address to simulated GPU physical address space (default = enabled)
-gpgpu_num_reg_banks                    8 # Number of register banks (default = 8)
-gpgpu_reg_bank_use_warp_id                    0 # Use warp ID in mapping registers to banks (default = off)
-gpgpu_sub_core_model                    1 # Sub Core Volta/Pascal model (default = off)
-gpgpu_enable_specialized_operand_collector                    0 # enable_specialized_operand_collector
-gpgpu_operand_collector_num_units_sp                    4 # number of collector units (default = 4)
-gpgpu_operand_collector_num_units_dp                    0 # number of collector units (default = 0)
-gpgpu_operand_collector_num_units_sfu                    4 # number of collector units (default = 4)
-gpgpu_operand_collector_num_units_int                    0 # number of collector units (default = 0)
-gpgpu_operand_collector_num_units_tensor_core                    4 # number of collector units (default = 4)
-gpgpu_operand_collector_num_units_mem                    2 # number of collector units (default = 2)
-gpgpu_operand_collector_num_units_gen                    8 # number of collector units (default = 0)
-gpgpu_operand_collector_num_in_ports_sp                    1 # number of collector unit in ports (default = 1)
-gpgpu_operand_collector_num_in_ports_dp                    0 # number of collector unit in ports (default = 0)
-gpgpu_operand_collector_num_in_ports_sfu                    1 # number of collector unit in ports (default = 1)
-gpgpu_operand_collector_num_in_ports_int                    0 # number of collector unit in ports (default = 0)
-gpgpu_operand_collector_num_in_ports_tensor_core                    1 # number of collector unit in ports (default = 1)
-gpgpu_operand_collector_num_in_ports_mem                    1 # number of collector unit in ports (default = 1)
-gpgpu_operand_collector_num_in_ports_gen                    8 # number of collector unit in ports (default = 0)
-gpgpu_operand_collector_num_out_ports_sp                    1 # number of collector unit in ports (default = 1)
-gpgpu_operand_collector_num_out_ports_dp                    0 # number of collector unit in ports (default = 0)
-gpgpu_operand_collector_num_out_ports_sfu                    1 # number of collector unit in ports (default = 1)
-gpgpu_operand_collector_num_out_ports_int                    0 # number of collector unit in ports (default = 0)
-gpgpu_operand_collector_num_out_ports_tensor_core                    1 # number of collector unit in ports (default = 1)
-gpgpu_operand_collector_num_out_ports_mem                    1 # number of collector unit in ports (default = 1)
-gpgpu_operand_collector_num_out_ports_gen                    8 # number of collector unit in ports (default = 0)
-gpgpu_coalesce_arch                   86 # Coalescing arch (GT200 = 13, Fermi = 20)
-gpgpu_num_sched_per_core                    4 # Number of warp schedulers per core
-gpgpu_max_insn_issue_per_warp                    1 # Max number of instructions that can be issued per warp in one cycle by scheduler (either 1 or 2)
-gpgpu_dual_issue_diff_exec_units                    1 # should dual issue use two different execution unit resources (Default = 1)
-gpgpu_simt_core_sim_order                    1 # Select the simulation order of cores in a cluster (0=Fix, 1=Round-Robin)
-gpgpu_pipeline_widths 4,4,4,4,4,4,4,4,4,4,8,4,4 # Pipeline widths ID_OC_SP,ID_OC_DP,ID_OC_INT,ID_OC_SFU,ID_OC_MEM,OC_EX_SP,OC_EX_DP,OC_EX_INT,OC_EX_SFU,OC_EX_MEM,EX_WB,ID_OC_TENSOR_CORE,OC_EX_TENSOR_CORE
-gpgpu_tensor_core_avail                    1 # Tensor Core Available (default=0)
-gpgpu_num_sp_units                     4 # Number of SP units (default=1)
-gpgpu_num_dp_units                     4 # Number of DP units (default=0)
-gpgpu_num_int_units                    4 # Number of INT units (default=0)
-gpgpu_num_sfu_units                    4 # Number of SF units (default=1)
-gpgpu_num_tensor_core_units                    4 # Number of tensor_core units (default=1)
-gpgpu_num_mem_units                    1 # Number if ldst units (default=1) WARNING: not hooked up to anything
-gpgpu_scheduler                      lrr # Scheduler configuration: < lrr | gto | two_level_active > If two_level_active:<num_active_warps>:<inner_prioritization>:<outer_prioritization>For complete list of prioritization values see shader.h enum scheduler_prioritization_typeDefault: gto
-gpgpu_concurrent_kernel_sm                    0 # Support concurrent kernels on a SM (default = disabled)
-gpgpu_perfect_inst_const_cache                    1 # perfect inst and const cache mode, so all inst and const hits in the cache(default = disabled)
-gpgpu_inst_fetch_throughput                    4 # the number of fetched intruction per warp each cycle
-gpgpu_reg_file_port_throughput                    2 # the number ports of the register file
-specialized_unit_1         0,4,4,4,4,BRA # specialized unit config {<enabled>,<num_units>:<latency>:<initiation>,<ID_OC_SPEC>:<OC_EX_SPEC>,<NAME>}
-specialized_unit_2         0,4,4,4,4,BRA # specialized unit config {<enabled>,<num_units>:<latency>:<initiation>,<ID_OC_SPEC>:<OC_EX_SPEC>,<NAME>}
-specialized_unit_3         0,4,4,4,4,BRA # specialized unit config {<enabled>,<num_units>:<latency>:<initiation>,<ID_OC_SPEC>:<OC_EX_SPEC>,<NAME>}
-specialized_unit_4         0,4,4,4,4,BRA # specialized unit config {<enabled>,<num_units>:<latency>:<initiation>,<ID_OC_SPEC>:<OC_EX_SPEC>,<NAME>}
-specialized_unit_5         0,4,4,4,4,BRA # specialized unit config {<enabled>,<num_units>:<latency>:<initiation>,<ID_OC_SPEC>:<OC_EX_SPEC>,<NAME>}
-specialized_unit_6         0,4,4,4,4,BRA # specialized unit config {<enabled>,<num_units>:<latency>:<initiation>,<ID_OC_SPEC>:<OC_EX_SPEC>,<NAME>}
-specialized_unit_7         0,4,4,4,4,BRA # specialized unit config {<enabled>,<num_units>:<latency>:<initiation>,<ID_OC_SPEC>:<OC_EX_SPEC>,<NAME>}
-specialized_unit_8         0,4,4,4,4,BRA # specialized unit config {<enabled>,<num_units>:<latency>:<initiation>,<ID_OC_SPEC>:<OC_EX_SPEC>,<NAME>}
-gpgpu_perf_sim_memcpy                    1 # Fill the L2 cache on memcpy
-gpgpu_simple_dram_model                    0 # simple_dram_model with fixed latency and BW
-gpgpu_dram_scheduler                    1 # 0 = fifo, 1 = FR-FCFS (defaul)
-gpgpu_dram_partition_queues          64:64:64:64 # i2$:$2d:d2$:$2i
-l2_ideal                               0 # Use a ideal L2 cache that always hit
-gpgpu_cache:dl2     S:64:128:16,L:B:m:L:P,A:192:4,32:0,32 # unified banked L2 data cache config  {<nsets>:<bsize>:<assoc>,<rep>:<wr>:<alloc>:<wr_alloc>,<mshr>:<N>:<merge>,<mq>}
-gpgpu_cache:dl2_texture_only                    0 # L2 cache used for texture only
-gpgpu_n_mem                           16 # number of memory modules (e.g. memory controllers) in gpu
-gpgpu_n_sub_partition_per_mchannel                    2 # number of memory subpartition in each memory module
-gpgpu_n_mem_per_ctrlr                    1 # number of memory chips per memory controller
-gpgpu_memlatency_stat                   14 # track and display latency statistics 0x2 enables MC, 0x4 enables queue logs
-gpgpu_frfcfs_dram_sched_queue_size                   64 # 0 = unlimited (default); # entries per chip
-gpgpu_dram_return_queue_size                  192 # 0 = unlimited (default); # entries per chip
-gpgpu_dram_buswidth                    2 # default = 4 bytes (8 bytes per cycle at DDR)
-gpgpu_dram_burst_length                   16 # Burst length of each DRAM request (default = 4 data bus cycle)
-dram_data_command_freq_ratio                    4 # Frequency ratio between DRAM data bus and command bus (default = 2 times, i.e. DDR)
-gpgpu_dram_timing_opt nbk=16:CCD=4:RRD=12:RCD=24:RAS=55:RP=24:RC=78:CL=24:WL=8:CDLR=10:WR=24:nbkgrp=4:CCDL=6:RTPL=4 # DRAM timing parameters = {nbk:tCCD:tRRD:tRCD:tRAS:tRP:tRC:CL:WL:tCDLR:tWR:nbkgrp:tCCDL:tRTPL}
-gpgpu_l2_rop_latency                  187 # ROP queue latency (default 85)
-dram_latency                         254 # DRAM latency (default 30)
-dram_dual_bus_interface                    0 # dual_bus_interface (default = 0) 
-dram_bnk_indexing_policy                    0 # dram_bnk_indexing_policy (0 = normal indexing, 1 = Xoring with the higher bits) (Default = 0)
-dram_bnkgrp_indexing_policy                    1 # dram_bnkgrp_indexing_policy (0 = take higher bits, 1 = take lower bits) (Default = 0)
-dram_seperate_write_queue_enable                    0 # Seperate_Write_Queue_Enable
-dram_write_queue_size             32:28:16 # Write_Queue_Size
-dram_elimnate_rw_turnaround                    0 # elimnate_rw_turnaround i.e set tWTR and tRTW = 0
-icnt_flit_size                        40 # icnt_flit_size
-gpgpu_mem_addr_mapping dramid@8;00000000.00000000.00000000.00000000.0000RRRR.RRRRRRRR.RBBBCCCC.BCCSSSSS # mapping memory address to dram model {dramid@<start bit>;<memory address map>}
-gpgpu_mem_addr_test                    0 # run sweep test to check address mapping for aliased address
-gpgpu_mem_address_mask                    1 # 0 = old addressing mask, 1 = new addressing mask, 2 = new add. mask + flipped bank sel and chip sel bits
-gpgpu_memory_partition_indexing                    2 # 0 = no indexing, 1 = bitwise xoring, 2 = IPoly, 3 = custom indexing
-accelwattch_xml_file accelwattch_sass_sim.xml # AccelWattch XML file
-power_simulation_enabled                    0 # Turn on power simulator (1=On, 0=Off)
-power_per_cycle_dump                    0 # Dump detailed power output each cycle
-hw_perf_file_name            hw_perf.csv # Hardware Performance Statistics file
-hw_perf_bench_name                       # Kernel Name in Hardware Performance Statistics file
-power_simulation_mode                    0 # Switch performance counter input for power simulation (0=Sim, 1=HW, 2=HW-Sim Hybrid)
-dvfs_enabled                           0 # Turn on DVFS for power model
-aggregate_power_stats                    0 # Accumulate power across all kernels
-accelwattch_hybrid_perfsim_L1_RH                    0 # Get L1 Read Hits for Accelwattch-Hybrid from Accel-Sim
-accelwattch_hybrid_perfsim_L1_RM                    0 # Get L1 Read Misses for Accelwattch-Hybrid from Accel-Sim
-accelwattch_hybrid_perfsim_L1_WH                    0 # Get L1 Write Hits for Accelwattch-Hybrid from Accel-Sim
-accelwattch_hybrid_perfsim_L1_WM                    0 # Get L1 Write Misses for Accelwattch-Hybrid from Accel-Sim
-accelwattch_hybrid_perfsim_L2_RH                    0 # Get L2 Read Hits for Accelwattch-Hybrid from Accel-Sim
-accelwattch_hybrid_perfsim_L2_RM                    0 # Get L2 Read Misses for Accelwattch-Hybrid from Accel-Sim
-accelwattch_hybrid_perfsim_L2_WH                    0 # Get L2 Write Hits for Accelwattch-Hybrid from Accel-Sim
-accelwattch_hybrid_perfsim_L2_WM                    0 # Get L2 Write Misses for Accelwattch-Hybrid from Accel-Sim
-accelwattch_hybrid_perfsim_CC_ACC                    0 # Get Constant Cache Acesses for Accelwattch-Hybrid from Accel-Sim
-accelwattch_hybrid_perfsim_SHARED_ACC                    0 # Get Shared Memory Acesses for Accelwattch-Hybrid from Accel-Sim
-accelwattch_hybrid_perfsim_DRAM_RD                    0 # Get DRAM Reads for Accelwattch-Hybrid from Accel-Sim
-accelwattch_hybrid_perfsim_DRAM_WR                    0 # Get DRAM Writes for Accelwattch-Hybrid from Accel-Sim
-accelwattch_hybrid_perfsim_NOC                    0 # Get Interconnect Acesses for Accelwattch-Hybrid from Accel-Sim
-accelwattch_hybrid_perfsim_PIPE_DUTY                    0 # Get Pipeline Duty Cycle Acesses for Accelwattch-Hybrid from Accel-Sim
-accelwattch_hybrid_perfsim_NUM_SM_IDLE                    0 # Get Number of Idle SMs for Accelwattch-Hybrid from Accel-Sim
-accelwattch_hybrid_perfsim_CYCLES                    0 # Get Executed Cycles for Accelwattch-Hybrid from Accel-Sim
-accelwattch_hybrid_perfsim_VOLTAGE                    0 # Get Chip Voltage for Accelwattch-Hybrid from Accel-Sim
-power_trace_enabled                    0 # produce a file for the power trace (1=On, 0=Off)
-power_trace_zlevel                     6 # Compression level of the power trace output log (0=no comp, 9=highest)
-steady_power_levels_enabled                    0 # produce a file for the steady power levels (1=On, 0=Off)
-steady_state_definition                  8:4 # allowed deviation:number of samples
-gpgpu_max_cycle                        0 # terminates gpu simulation early (0 = no limit)
-gpgpu_max_insn                         0 # terminates gpu simulation early (0 = no limit)
-gpgpu_max_cta                          0 # terminates gpu simulation early (0 = no limit)
-gpgpu_max_completed_cta                    0 # terminates gpu simulation early (0 = no limit)
-gpgpu_runtime_stat                   500 # display runtime statistics such as dram utilization {<freq>:<flag>}
-liveness_message_freq                    1 # Minimum number of seconds between simulation liveness messages (0 = always print)
-gpgpu_compute_capability_major                    8 # Major compute capability version number
-gpgpu_compute_capability_minor                    6 # Minor compute capability version number
-gpgpu_flush_l1_cache                    1 # Flush L1 cache at the end of each kernel call
-gpgpu_flush_l2_cache                    0 # Flush L2 cache at the end of each kernel call
-gpgpu_deadlock_detect                    1 # Stop the simulation at deadlock (1=on (default), 0=off)
-gpgpu_ptx_instruction_classification                    0 # if enabled will classify ptx instruction types per kernel (Max 255 kernels now)
-gpgpu_ptx_sim_mode                     0 # Select between Performance (default) or Functional simulation (1)
-gpgpu_clock_domains   735:735:735:3500.0 # Clock Domain Frequencies in MhZ {<Core Clock>:<ICNT Clock>:<L2 Clock>:<DRAM Clock>}
-gpgpu_max_concurrent_kernel                  128 # maximum kernels that can run concurrently on GPU, set this value according to max resident grids for your compute capability
-gpgpu_cflog_interval                    0 # Interval between each snapshot in control flow logger
-visualizer_enabled                     0 # Turn on visualizer output (1=On, 0=Off)
-visualizer_outputfile                 NULL # Specifies the output log file for visualizer
-visualizer_zlevel                      6 # Compression level of the visualizer output log (0=no comp, 9=highest)
-gpgpu_stack_size_limit                 1024 # GPU thread stack size
-gpgpu_heap_size_limit              8388608 # GPU malloc heap size 
-gpgpu_runtime_sync_depth_limit                    2 # GPU device runtime synchronize depth
-gpgpu_runtime_pending_launch_count_limit                 2048 # GPU device runtime pending launch count
-trace_enabled                          0 # Turn on traces
-trace_components                    none # comma seperated list of traces to enable. Complete list found in trace_streams.tup. Default none
-trace_sampling_core                    0 # The core which is printed using CORE_DPRINTF. Default 0
-trace_sampling_memory_partition                   -1 # The memory partition which is printed using MEMPART_DPRINTF. Default -1 (i.e. all)
-enable_ptx_file_line_stats                    1 # Turn on PTX source line statistic profiling. (1 = On)
-ptx_line_stats_filename gpgpu_inst_stats.txt # Output file for PTX source line statistics.
-gpgpu_kernel_launch_latency                 5000 # Kernel launch latency in cycles. Default: 0
-gpgpu_cdp_enabled                      0 # Turn on CDP
-gpgpu_TB_launch_latency                    0 # thread block launch latency in cycles. Default: 0
DRAM Timing Options:
nbk                                    16 # number of banks
CCD                                     4 # column to column delay
RRD                                    12 # minimal delay between activation of rows in de4fe8aeaa3cbb0f2edd942968a8388a5  /benchrun/accelsim-ptx/vectoradd/sm86_a4000/input-1000000/vectorAdd
Extracting PTX file and ptxas options    1: vectorAdd.1.sm_30.ptx -arch=sm_30
ifferent banks
RCD                                    24 # row to column delay
RAS                                    55 # time needed to activate row
RP                                     24 # time needed to precharge (deactivate) row
RC                                     78 # row cycle time
CDLR                                   10 # switching from write to read (changes tWTR)
WR                                     24 # last data-in to row precharge
CL                                     24 # CAS latency
WL                                      8 # Write latency
nbkgrp                                  4 # number of bank groups
CCDL                                    6 # column to column delay between accesses to different bank groups
RTPL                                    4 # read to precharge delay between accesses to different bank groups
Total number of memory sub partition = 32
addr_dec_mask[CHIP]  = 0000000000000f00 	high:12 low:8
addr_dec_mask[BK]    = 0000000000070080 	high:19 low:7
addr_dec_mask[ROW]   = 00000000fff80000 	high:32 low:19
addr_dec_mask[COL]   = 000000000000f07f 	high:16 low:0
addr_dec_mask[BURST] = 000000000000001f 	high:5 low:0
sub_partition_id_mask = 0000000000000080
GPGPU-Sim uArch: clock freqs: 735000000.000000:735000000.000000:735000000.000000:3500000000.000000
GPGPU-Sim uArch: clock periods: 0.00000000136054421769:0.00000000136054421769:0.00000000136054421769:0.00000000028571428571
*** Initializing Memory Statistics ***
GPGPU-Sim uArch: performance model initialization complete.
self exe links to: /benchrun/accelsim-ptx/vectoradd/sm86_a4000/input-1000000/vectorAdd
self exe links to: /benchrun/accelsim-ptx/vectoradd/sm86_a4000/input-1000000/vectorAdd
10.1
GPGPU-Sim PTX: __cudaRegisterFatBinary, fat_cubin_handle = 1, filename=default
self exe links to: /benchrun/accelsim-ptx/vectoradd/sm86_a4000/input-1000000/vectorAdd
Running md5sum using "md5sum /benchrun/accelsim-ptx/vectoradd/sm86_a4000/input-1000000/vectorAdd "
self exe links to: /benchrun/accelsim-ptx/vectoradd/sm86_a4000/input-1000000/vectorAdd
Extracting specific PTX file named vectorAdd.1.sm_30.ptx 
GPGPU-Sim PTX: __cudaRegisterFunction _Z6vecAddPdS_S_i : hostFun 0x0x55a18d8015dd, fat_cubin_handle = 1
GPGPU-Sim PTX: Parsing vectorAdd.1.sm_30.ptx
GPGPU-Sim PTX: instruction assembly for function '_Z6vecAddPdS_S_i'...   done.
GPGPU-Sim PTX: finished parsing EMBEDDED .ptx file vectorAdd.1.sm_30.ptx
GPGPU-Sim PTX: loading globals with explicit initializers... 
GPGPU-Sim PTX: finished loading globals (0 bytes total).
GPGPU-Sim PTX: loading constants with explicit initializers...  done.
GPGPU-Sim PTX: Loading PTXInfo from vectorAdd.1.sm_30.ptx
GPGPU-Sim PTX: Kernel '_Z6vecAddPdS_S_i' : regs=10, lmem=0, smem=0, cmem=348
GPGPU-Sim PTX: Setting up arguments for 8 bytes starting at 0x7ffece4ee1e8..
GPGPU-Sim PTX: Setting up arguments for 8 bytes starting at 0x7ffece4ee1e0..
GPGPU-Sim PTX: Setting up arguments for 8 bytes starting at 0x7ffece4ee1d8..
GPGPU-Sim PTX: Setting up arguments for 4 bytes starting at 0x7ffece4ee1d4..

GPGPU-Sim PTX: cudaLaunch for 0x0x55a18d8015dd (mode=performance simulation) on stream 0
GPGPU-Sim PTX: finding reconvergence points for '_Z6vecAddPdS_S_i'...
GPGPU-Sim PTX: Finding dominators for '_Z6vecAddPdS_S_i'...
GPGPU-Sim PTX: Finding immediate dominators for '_Z6vecAddPdS_S_i'...
GPGPU-Sim PTX: Finding postdominators for '_Z6vecAddPdS_S_i'...
GPGPU-Sim PTX: Finding immediate postdominators for '_Z6vecAddPdS_S_i'...
GPGPU-Sim PTX: pre-decoding instructions for '_Z6vecAddPdS_S_i'...
GPGPU-Sim PTX: reconvergence points for _Z6vecAddPdS_S_i...
GPGPU-Sim PTX:  1 (potential) branch divergence @  PC=0x048 (vectorAdd.1.sm_30.ptx:37) @%p1 bra BB0_2;
GPGPU-Sim PTX:    immediate post dominator      @  PC=0x0a8 (vectorAdd.1.sm_30.ptx:52) ret;
GPGPU-Sim PTX: ... end of reconvergence points for _Z6vecAddPdS_S_i
GPGPU-Sim PTX: ... done pre-decoding instructions for '_Z6vecAddPdS_S_i'.
GPGPU-Sim PTX: pushing kernel '_Z6vecAddPdS_S_i' to stream 0, gridDim= (977,1,1) blockDim = (1024,1,1) 
GPGPU-Sim uArch: Shader 0 bind to kernel 1 '_Z6vecAddPdS_S_i'
GPGPU-Sim uArch: CTA/core = 1, limited by: threads
GPGPU-Sim: Reconfigure L1 cache to 128KB
GPGPU-Sim uArch: Shader 1 bind to kernel 1 '_Z6vecAddPdS_S_i'
GPGPU-Sim uArch: Shader 2 bind to kernel 1 '_Z6vecAddPdS_S_i'
GPGPU-Sim uArch: Shader 3 bind to kernel 1 '_Z6vecAddPdS_S_i'
GPGPU-Sim uArch: Shader 4 bind to kernel 1 '_Z6vecAddPdS_S_i'
GPGPU-Sim uArch: Shader 5 bind to kernel 1 '_Z6vecAddPdS_S_i'
GPGPU-Sim uArch: Shader 6 bind to kernel 1 '_Z6vecAddPdS_S_i'
GPGPU-Sim uArch: Shader 7 bind to kernel 1 '_Z6vecAddPdS_S_i'
GPGPU-Sim uArch: Shader 8 bind to kernel 1 '_Z6vecAddPdS_S_i'
GPGPU-Sim uArch: Shader 9 bind to kernel 1 '_Z6vecAddPdS_S_i'
GPGPU-Sim uArch: Shader 10 bind to kernel 1 '_Z6vecAddPdS_S_i'
GPGPU-Sim uArch: Shader 11 bind to kernel 1 '_Z6vecAddPdS_S_i'
GPGPU-Sim uArch: Shader 12 bind to kernel 1 '_Z6vecAddPdS_S_i'
GPGPU-Sim uArch: Shader 13 bind to kernel 1 '_Z6vecAddPdS_S_i'
GPGPU-Sim uArch: Shader 14 bind to kernel 1 '_Z6vecAddPdS_S_i'
GPGPU-Sim uArch: Shader 15 bind to kernel 1 '_Z6vecAddPdS_S_i'
GPGPU-Sim uArch: Shader 16 bind to kernel 1 '_Z6vecAddPdS_S_i'
GPGPU-Sim uArch: Shader 17 bind to kernel 1 '_Z6vecAddPdS_S_i'
GPGPU-Sim uArch: Shader 18 bind to kernel 1 '_Z6vecAddPdS_S_i'
GPGPU-Sim uArch: Shader 19 bind to kernel 1 '_Z6vecAddPdS_S_i'
GPGPU-Sim uArch: Shader 20 bind to kernel 1 '_Z6vecAddPdS_S_i'
GPGPU-Sim uArch: Shader 21 bind to kernel 1 '_Z6vecAddPdS_S_i'
GPGPU-Sim uArch: Shader 22 bind to kernel 1 '_Z6vecAddPdS_S_i'
GPGPU-Sim uArch: Shader 23 bind to kernel 1 '_Z6vecAddPdS_S_i'
GPGPU-Sim uArch: Shader 24 bind to kernel 1 '_Z6vecAddPdS_S_i'
GPGPU-Sim uArch: Shader 25 bind to kernel 1 '_Z6vecAddPdS_S_i'
GPGPU-Sim uArch: Shader 26 bind to kernel 1 '_Z6vecAddPdS_S_i'
GPGPU-Sim uArch: Shader 27 bind to kernel 1 '_Z6vecAddPdS_S_i'
GPGPU-Sim uArch: Shader 28 bind to kernel 1 '_Z6vecAddPdS_S_i'
GPGPU-Sim uArch: Shader 29 bind to kernel 1 '_Z6vecAddPdS_S_i'
GPGPU-Sim uArch: Shader 30 bind to kernel 1 '_Z6vecAddPdS_S_i'
GPGPU-Sim uArch: Shader 31 bind to kernel 1 '_Z6vecAddPdS_S_i'
GPGPU-Sim uArch: Shader 32 bind to kernel 1 '_Z6vecAddPdS_S_i'
GPGPU-Sim uArch: Shader 33 bind to kernel 1 '_Z6vecAddPdS_S_i'
GPGPU-Sim uArch: Shader 34 bind to kernel 1 '_Z6vecAddPdS_S_i'
GPGPU-Sim uArch: Shader 35 bind to kernel 1 '_Z6vecAddPdS_S_i'
GPGPU-Sim uArch: Shader 36 bind to kernel 1 '_Z6vecAddPdS_S_i'
GPGPU-Sim uArch: Shader 37 bind to kernel 1 '_Z6vecAddPdS_S_i'
GPGPU-Sim uArch: Shader 38 bind to kernel 1 '_Z6vecAddPdS_S_i'
GPGPU-Sim uArch: Shader 39 bind to kernel 1 '_Z6vecAddPdS_S_i'
GPGPU-Sim uArch: Shader 40 bind to kernel 1 '_Z6vecAddPdS_S_i'
GPGPU-Sim uArch: Shader 41 bind to kernel 1 '_Z6vecAddPdS_S_i'
GPGPU-Sim uArch: Shader 42 bind to kernel 1 '_Z6vecAddPdS_S_i'
GPGPU-Sim uArch: Shader 43 bind to kernel 1 '_Z6vecAddPdS_S_i'
GPGPU-Sim uArch: Shader 44 bind to kernel 1 '_Z6vecAddPdS_S_i'
GPGPU-Sim uArch: Shader 45 bind to kernel 1 '_Z6vecAddPdS_S_i'
GPGPU-Sim uArch: Shader 46 bind to kernel 1 '_Z6vecAddPdS_S_i'
GPGPU-Sim uArch: Shader 47 bind to kernel 1 '_Z6vecAddPdS_S_i'
GPGPU-Sim uArch: Shader 1 bind to kernel 1 '_Z6vecAddPdS_S_i'
GPGPU-Sim uArch: Shader 7 bind to kernel 1 '_Z6vecAddPdS_S_i'
GPGPU-Sim uArch: Shader 30 bind to kernel 1 '_Z6vecAddPdS_S_i'
GPGPU-Sim uArch: Shader 10 bind to kernel 1 '_Z6vecAddPdS_S_i'
GPGPU-Sim uArch: Shader 21 bind to kernel 1 '_Z6vecAddPdS_S_i'
GPGPU-Sim uArch: Shader 45 bind to kernel 1 '_Z6vecAddPdS_S_i'
GPGPU-Sim uArch: Shader 47 bind to kernel 1 '_Z6vecAddPdS_S_i'
GPGPU-Sim uArch: Shader 28 bind to kernel 1 '_Z6vecAddPdS_S_i'
GPGPU-Sim uArch: Shader 41 bind to kernel 1 '_Z6vecAddPdS_S_i'
GPGPU-Sim uArch: Shader 17 bind to kernel 1 '_Z6vecAddPdS_S_i'
GPGPU-Sim uArch: Shader 5 bind to kernel 1 '_Z6vecAddPdS_S_i'
GPGPU-Sim uArch: Shader 24 bind to kernel 1 '_Z6vecAddPdS_S_i'
GPGPU-Sim uArch: Shader 32 bind to kernel 1 '_Z6vecAddPdS_S_i'
GPGPU-Sim uArch: Shader 8 bind to kernel 1 '_Z6vecAddPdS_S_i'
GPGPU-Sim uArch: Shader 34 bind to kernel 1 '_Z6vecAddPdS_S_i'
GPGPU-Sim uArch: Shader 14 bind to kernel 1 '_Z6vecAddPdS_S_i'
GPGPU-Sim uArch: Shader 23 bind to kernel 1 '_Z6vecAddPdS_S_i'
GPGPU-Sim uArch: Shader 26 bind to kernel 1 '_Z6vecAddPdS_S_i'
GPGPU-Sim uArch: Shader 12 bind to kernel 1 '_Z6vecAddPdS_S_i'
GPGPU-Sim uArch: Shader 19 bind to kernel 1 '_Z6vecAddPdS_S_i'
GPGPU-Sim uArch: Shader 6 bind to kernel 1 '_Z6vecAddPdS_S_i'
GPGPU-Sim uArch: Shader 16 bind to kernel 1 '_Z6vecAddPdS_S_i'
GPGPU-Sim uArch: Shader 38 bind to kernel 1 '_Z6vecAddPdS_S_i'
GPGPU-Sim uArch: Shader 9 bind to kernel 1 '_Z6vecAddPdS_S_i'
GPGPU-Sim uArch: Shader 3 bind to kernel 1 '_Z6vecAddPdS_S_i'
GPGPU-Sim uArch: Shader 18 bind to kernel 1 '_Z6vecAddPdS_S_i'
GPGPU-Sim uArch: Shader 43 bind to kernel 1 '_Z6vecAddPdS_S_i'
GPGPU-Sim uArch: Shader 15 bind to kernel 1 '_Z6vecAddPdS_S_i'
GPGPU-Sim uArch: Shader 2 bind to kernel 1 '_Z6vecAddPdS_S_i'
GPGPU-Sim uArch: Shader 36 bind to kernel 1 '_Z6vecAddPdS_S_i'
GPGPU-Sim uArch: Shader 13 bind to kernel 1 '_Z6vecAddPdS_S_i'
GPGPU-Sim uArch: Shader 0 bind to kernel 1 '_Z6vecAddPdS_S_i'
GPGPU-Sim uArch: Shader 29 bind to kernel 1 '_Z6vecAddPdS_S_i'
GPGPU-Sim uArch: Shader 20 bind to kernel 1 '_Z6vecAddPdS_S_i'
GPGPU-Sim uArch: Shader 31 bind to kernel 1 '_Z6vecAddPdS_S_i'
GPGPU-Sim uArch: Shader 44 bind to kernel 1 '_Z6vecAddPdS_S_i'
GPGPU-Sim uArch: Shader 33 bind to kernel 1 '_Z6vecAddPdS_S_i'
GPGPU-Sim uArch: Shader 25 bind to kernel 1 '_Z6vecAddPdS_S_i'
GPGPU-Sim uArch: Shader 46 bind to kernel 1 '_Z6vecAddPdS_S_i'
GPGPU-Sim uArch: Shader 40 bind to kernel 1 '_Z6vecAddPdS_S_i'
GPGPU-Sim uArch: Shader 27 bind to kernel 1 '_Z6vecAddPdS_S_i'
GPGPU-Sim uArch: Shader 35 bind to kernel 1 '_Z6vecAddPdS_S_i'
GPGPU-Sim uArch: Shader 22 bind to kernel 1 '_Z6vecAddPdS_S_i'
GPGPU-Sim uArch: Shader 39 bind to kernel 1 '_Z6vecAddPdS_S_i'
GPGPU-Sim uArch: Shader 4 bind to kernel 1 '_Z6vecAddPdS_S_i'
GPGPU-Sim uArch: Shader 11 bind to kernel 1 '_Z6vecAddPdS_S_i'
GPGPU-Sim uArch: Shader 42 bind to kernel 1 '_Z6vecAddPdS_S_i'
GPGPU-Sim uArch: Shader 37 bind to kernel 1 '_Z6vecAddPdS_S_i'
GPGPU-Sim uArch: Shader 1 bind to kernel 1 '_Z6vecAddPdS_S_i'
GPGPU-Sim uArch: Shader 47 bind to kernel 1 '_Z6vecAddPdS_S_i'
GPGPU-Sim uArch: Shader 17 bind to kernel 1 '_Z6vecAddPdS_S_i'
GPGPU-Sim uArch: Shader 10 bind to kernel 1 '_Z6vecAddPdS_S_i'
GPGPU-Sim uArch: Shader 24 bind to kernel 1 '_Z6vecAddPdS_S_i'
GPGPU-Sim uArch: Shader 30 bind to kernel 1 '_Z6vecAddPdS_S_i'
GPGPU-Sim uArch: Shader 21 bind to kernel 1 '_Z6vecAddPdS_S_i'
GPGPU-Sim uArch: Shader 28 bind to kernel 1 '_Z6vecAddPdS_S_i'
GPGPU-Sim uArch: Shader 45 bind to kernel 1 '_Z6vecAddPdS_S_i'
GPGPU-Sim uArch: Shader 7 bind to kernel 1 '_Z6vecAddPdS_S_i'
GPGPU-Sim uArch: Shader 14 bind to kernel 1 '_Z6vecAddPdS_S_i'
GPGPU-Sim uArch: Shader 8 bind to kernel 1 '_Z6vecAddPdS_S_i'
GPGPU-Sim uArch: Shader 5 bind to kernel 1 '_Z6vecAddPdS_S_i'
GPGPU-Sim uArch: Shader 6 bind to kernel 1 '_Z6vecAddPdS_S_i'
GPGPU-Sim uArch: Shader 41 bind to kernel 1 '_Z6vecAddPdS_S_i'
GPGPU-Sim uArch: Shader 32 bind to kernel 1 '_Z6vecAddPdS_S_i'
GPGPU-Sim uArch: Shader 23 bind to kernel 1 '_Z6vecAddPdS_S_i'
GPGPU-Sim uArch: Shader 34 bind to kernel 1 '_Z6vecAddPdS_S_i'
GPGPU-Sim uArch: Shader 38 bind to kernel 1 '_Z6vecAddPdS_S_i'
GPGPU-Sim uArch: Shader 19 bind to kernel 1 '_Z6vecAddPdS_S_i'
GPGPU-Sim uArch: Shader 18 bind to kernel 1 '_Z6vecAddPdS_S_i'
GPGPU-Sim uArch: Shader 12 bind to kernel 1 '_Z6vecAddPdS_S_i'
GPGPU-Sim uArch: Shader 36 bind to kernel 1 '_Z6vecAddPdS_S_i'
GPGPU-Sim uArch: Shader 26 bind to kernel 1 '_Z6vecAddPdS_S_i'
GPGPU-Sim uArch: Shader 15 bind to kernel 1 '_Z6vecAddPdS_S_i'
GPGPU-Sim uArch: Shader 29 bind to kernel 1 '_Z6vecAddPdS_S_i'
GPGPU-Sim uArch: Shader 33 bind to kernel 1 '_Z6vecAddPdS_S_i'
GPGPU-Sim uArch: Shader 16 bind to kernel 1 '_Z6vecAddPdS_S_i'
GPGPU-Sim uArch: Shader 31 bind to kernel 1 '_Z6vecAddPdS_S_i'
GPGPU-Sim uArch: Shader 46 bind to kernel 1 '_Z6vecAddPdS_S_i'
GPGPU-Sim uArch: Shader 43 bind to kernel 1 '_Z6vecAddPdS_S_i'
GPGPU-Sim uArch: Shader 3 bind to kernel 1 '_Z6vecAddPdS_S_i'
GPGPU-Sim uArch: Shader 0 bind to kernel 1 '_Z6vecAddPdS_S_i'
GPGPU-Sim uArch: Shader 2 bind to kernel 1 '_Z6vecAddPdS_S_i'
GPGPU-Sim uArch: Shader 11 bind to kernel 1 '_Z6vecAddPdS_S_i'
GPGPU-Sim uArch: Shader 4 bind to kernel 1 '_Z6vecAddPdS_S_i'
GPGPU-Sim uArch: Shader 9 bind to kernel 1 '_Z6vecAddPdS_S_i'
GPGPU-Sim uArch: Shader 25 bind to kernel 1 '_Z6vecAddPdS_S_i'
GPGPU-Sim uArch: Shader 44 bind to kernel 1 '_Z6vecAddPdS_S_i'
GPGPU-Sim uArch: Shader 13 bind to kernel 1 '_Z6vecAddPdS_S_i'
GPGPU-Sim uArch: Shader 20 bind to kernel 1 '_Z6vecAddPdS_S_i'
GPGPU-Sim uArch: Shader 35 bind to kernel 1 '_Z6vecAddPdS_S_i'
GPGPU-Sim uArch: Shader 39 bind to kernel 1 '_Z6vecAddPdS_S_i'
GPGPU-Sim uArch: Shader 42 bind to kernel 1 '_Z6vecAddPdS_S_i'
GPGPU-Sim uArch: Shader 37 bind to kernel 1 '_Z6vecAddPdS_S_i'
GPGPU-Sim uArch: Shader 22 bind to kernel 1 '_Z6vecAddPdS_S_i'
GPGPU-Sim uArch: Shader 27 bind to kernel 1 '_Z6vecAddPdS_S_i'
GPGPU-Sim uArch: Shader 40 bind to kernel 1 '_Z6vecAddPdS_S_i'
GPGPU-Sim uArch: Shader 1 bind to kernel 1 '_Z6vecAddPdS_S_i'
GPGPU-Sim uArch: Shader 47 bind to kernel 1 '_Z6vecAddPdS_S_i'
GPGPU-Sim uArch: Shader 10 bind to kernel 1 '_Z6vecAddPdS_S_i'
GPGPU-Sim uArch: Shader 21 bind to kernel 1 '_Z6vecAddPdS_S_i'
GPGPU-Sim uArch: Shader 24 bind to kernel 1 '_Z6vecAddPdS_S_i'
GPGPU-Sim uArch: Shader 30 bind to kernel 1 '_Z6vecAddPdS_S_i'
GPGPU-Sim uArch: Shader 17 bind to kernel 1 '_Z6vecAddPdS_S_i'
GPGPU-Sim uArch: Shader 28 bind to kernel 1 '_Z6vecAddPdS_S_i'
GPGPU-Sim uArch: Shader 8 bind to kernel 1 '_Z6vecAddPdS_S_i'
GPGPU-Sim uArch: Shader 14 bind to kernel 1 '_Z6vecAddPdS_S_i'
GPGPU-Sim uArch: Shader 45 bind to kernel 1 '_Z6vecAddPdS_S_i'
GPGPU-Sim uArch: Shader 7 bind to kernel 1 '_Z6vecAddPdS_S_i'
GPGPU-Sim uArch: Shader 6 bind to kernel 1 '_Z6vecAddPdS_S_i'
GPGPU-Sim uArch: Shader 5 bind to kernel 1 '_Z6vecAddPdS_S_i'
GPGPU-Sim uArch: Shader 41 bind to kernel 1 '_Z6vecAddPdS_S_i'
GPGPU-Sim uArch: Shader 23 bind to kernel 1 '_Z6vecAddPdS_S_i'
GPGPU-Sim uArch: Shader 32 bind to kernel 1 '_Z6vecAddPdS_S_i'
GPGPU-Sim uArch: Shader 34 bind to kernel 1 '_Z6vecAddPdS_S_i'
GPGPU-Sim uArch: Shader 12 bind to kernel 1 '_Z6vecAddPdS_S_i'
GPGPU-Sim uArch: Shader 19 bind to kernel 1 '_Z6vecAddPdS_S_i'
GPGPU-Sim uArch: Shader 26 bind to kernel 1 '_Z6vecAddPdS_S_i'
GPGPU-Sim uArch: Shader 18 bind to kernel 1 '_Z6vecAddPdS_S_i'
GPGPU-Sim uArch: Shader 38 bind to kernel 1 '_Z6vecAddPdS_S_i'
GPGPU-Sim uArch: Shader 33 bind to kernel 1 '_Z6vecAddPdS_S_i'
GPGPU-Sim uArch: Shader 31 bind to kernel 1 '_Z6vecAddPdS_S_i'
GPGPU-Sim uArch: Shader 15 bind to kernel 1 '_Z6vecAddPdS_S_i'
GPGPU-Sim uArch: Shader 16 bind to kernel 1 '_Z6vecAddPdS_S_i'
GPGPU-Sim uArch: Shader 29 bind to kernel 1 '_Z6vecAddPdS_S_i'
GPGPU-Sim uArch: Shader 36 bind to kernel 1 '_Z6vecAddPdS_S_i'
GPGPU-Sim uArch: Shader 46 bind to kernel 1 '_Z6vecAddPdS_S_i'
GPGPU-Sim uArch: Shader 39 bind to kernel 1 '_Z6vecAddPdS_S_i'
GPGPU-Sim uArch: Shader 35 bind to kernel 1 '_Z6vecAddPdS_S_i'
GPGPU-Sim uArch: Shader 20 bind to kernel 1 '_Z6vecAddPdS_S_i'
GPGPU-Sim uArch: Shader 11 bind to kernel 1 '_Z6vecAddPdS_S_i'
GPGPU-Sim uArch: Shader 2 bind to kernel 1 '_Z6vecAddPdS_S_i'
GPGPU-Sim uArch: Shader 22 bind to kernel 1 '_Z6vecAddPdS_S_i'
GPGPU-Sim uArch: Shader 43 bind to kernel 1 '_Z6vecAddPdS_S_i'
GPGPU-Sim uArch: Shader 9 bind to kernel 1 '_Z6vecAddPdS_S_i'
GPGPU-Sim uArch: Shader 0 bind to kernel 1 '_Z6vecAddPdS_S_i'
GPGPU-Sim uArch: Shader 13 bind to kernel 1 '_Z6vecAddPdS_S_i'
GPGPU-Sim uArch: Shader 4 bind to kernel 1 '_Z6vecAddPdS_S_i'
GPGPU-Sim uArch: Shader 44 bind to kernel 1 '_Z6vecAddPdS_S_i'
GPGPU-Sim uArch: Shader 25 bind to kernel 1 '_Z6vecAddPdS_S_i'
GPGPU-Sim uArch: Shader 27 bind to kernel 1 '_Z6vecAddPdS_S_i'
GPGPU-Sim uArch: Shader 37 bind to kernel 1 '_Z6vecAddPdS_S_i'
GPGPU-Sim uArch: Shader 3 bind to kernel 1 '_Z6vecAddPdS_S_i'
GPGPU-Sim uArch: Shader 40 bind to kernel 1 '_Z6vecAddPdS_S_i'
GPGPU-Sim uArch: Shader 42 bind to kernel 1 '_Z6vecAddPdS_S_i'
GPGPU-Sim uArch: Shader 47 bind to kernel 1 '_Z6vecAddPdS_S_i'
GPGPU-Sim uArch: Shader 10 bind to kernel 1 '_Z6vecAddPdS_S_i'
GPGPU-Sim uArch: Shader 17 bind to kernel 1 '_Z6vecAddPdS_S_i'
GPGPU-Sim uArch: Shader 24 bind to kernel 1 '_Z6vecAddPdS_S_i'
GPGPU-Sim uArch: Shader 1 bind to kernel 1 '_Z6vecAddPdS_S_i'
GPGPU-Sim uArch: Shader 21 bind to kernel 1 '_Z6vecAddPdS_S_i'
GPGPU-Sim uArch: Shader 30 bind to kernel 1 '_Z6vecAddPdS_S_i'
GPGPU-Sim uArch: Shader 28 bind to kernel 1 '_Z6vecAddPdS_S_i'
GPGPU-Sim uArch: Shader 8 bind to kernel 1 '_Z6vecAddPdS_S_i'
GPGPU-Sim uArch: Shader 14 bind to kernel 1 '_Z6vecAddPdS_S_i'
GPGPU-Sim uArch: Shader 45 bind to kernel 1 '_Z6vecAddPdS_S_i'
GPGPU-Sim uArch: Shader 7 bind to kernel 1 '_Z6vecAddPdS_S_i'
GPGPU-Sim uArch: Shader 6 bind to kernel 1 '_Z6vecAddPdS_S_i'
GPGPU-Sim uArch: Shader 5 bind to kernel 1 '_Z6vecAddPdS_S_i'
GPGPU-Sim uArch: Shader 23 bind to kernel 1 '_Z6vecAddPdS_S_i'
GPGPU-Sim uArch: Shader 41 bind to kernel 1 '_Z6vecAddPdS_S_i'
GPGPU-Sim uArch: Shader 32 bind to kernel 1 '_Z6vecAddPdS_S_i'
GPGPU-Sim uArch: Shader 12 bind to kernel 1 '_Z6vecAddPdS_S_i'
GPGPU-Sim uArch: Shader 34 bind to kernel 1 '_Z6vecAddPdS_S_i'
GPGPU-Sim uArch: Shader 19 bind to kernel 1 '_Z6vecAddPdS_S_i'
GPGPU-Sim uArch: Shader 38 bind to kernel 1 '_Z6vecAddPdS_S_i'
GPGPU-Sim uArch: Shader 26 bind to kernel 1 '_Z6vecAddPdS_S_i'
GPGPU-Sim uArch: Shader 18 bind to kernel 1 '_Z6vecAddPdS_S_i'
GPGPU-Sim uArch: Shader 33 bind to kernel 1 '_Z6vecAddPdS_S_i'
GPGPU-Sim uArch: Shader 15 bind to kernel 1 '_Z6vecAddPdS_S_i'
GPGPU-Sim uArch: Shader 16 bind to kernel 1 '_Z6vecAddPdS_S_i'
GPGPU-Sim uArch: Shader 31 bind to kernel 1 '_Z6vecAddPdS_S_i'
GPGPU-Sim uArch: Shader 29 bind to kernel 1 '_Z6vecAddPdS_S_i'
GPGPU-Sim uArch: Shader 11 bind to kernel 1 '_Z6vecAddPdS_S_i'
GPGPU-Sim uArch: Shader 39 bind to kernel 1 '_Z6vecAddPdS_S_i'
GPGPU-Sim uArch: Shader 46 bind to kernel 1 '_Z6vecAddPdS_S_i'
GPGPU-Sim uArch: Shader 20 bind to kernel 1 '_Z6vecAddPdS_S_i'
GPGPU-Sim uArch: Shader 44 bind to kernel 1 '_Z6vecAddPdS_S_i'
GPGPU-Sim uArch: Shader 35 bind to kernel 1 '_Z6vecAddPdS_S_i'
GPGPU-Sim uArch: Shader 36 bind to kernel 1 '_Z6vecAddPdS_S_i'
GPGPU-Sim uArch: Shader 9 bind to kernel 1 '_Z6vecAddPdS_S_i'
GPGPU-Sim uArch: Shader 0 bind to kernel 1 '_Z6vecAddPdS_S_i'
GPGPU-Sim uArch: Shader 2 bind to kernel 1 '_Z6vecAddPdS_S_i'
GPGPU-Sim uArch: Shader 22 bind to kernel 1 '_Z6vecAddPdS_S_i'
GPGPU-Sim uArch: Shader 27 bind to kernel 1 '_Z6vecAddPdS_S_i'
GPGPU-Sim uArch: Shader 40 bind to kernel 1 '_Z6vecAddPdS_S_i'
GPGPU-Sim uArch: Shader 4 bind to kernel 1 '_Z6vecAddPdS_S_i'
GPGPU-Sim uArch: Shader 37 bind to kernel 1 '_Z6vecAddPdS_S_i'
GPGPU-Sim uArch: Shader 13 bind to kernel 1 '_Z6vecAddPdS_S_i'
GPGPU-Sim uArch: Shader 43 bind to kernel 1 '_Z6vecAddPdS_S_i'
GPGPU-Sim uArch: Shader 25 bind to kernel 1 '_Z6vecAddPdS_S_i'
GPGPU-Sim uArch: Shader 42 bind to kernel 1 '_Z6vecAddPdS_S_i'
GPGPU-Sim uArch: Shader 3 bind to kernel 1 '_Z6vecAddPdS_S_i'
GPGPU-Sim uArch: Shader 47 bind to kernel 1 '_Z6vecAddPdS_S_i'
GPGPU-Sim uArch: Shader 30 bind to kernel 1 '_Z6vecAddPdS_S_i'
GPGPU-Sim uArch: Shader 24 bind to kernel 1 '_Z6vecAddPdS_S_i'
GPGPU-Sim uArch: Shader 1 bind to kernel 1 '_Z6vecAddPdS_S_i'
GPGPU-Sim uArch: Shader 10 bind to kernel 1 '_Z6vecAddPdS_S_i'
GPGPU-Sim uArch: Shader 21 bind to kernel 1 '_Z6vecAddPdS_S_i'
GPGPU-Sim uArch: Shader 17 bind to kernel 1 '_Z6vecAddPdS_S_i'
GPGPU-Sim uArch: Shader 28 bind to kernel 1 '_Z6vecAddPdS_S_i'
GPGPU-Sim uArch: Shader 14 bind to kernel 1 '_Z6vecAddPdS_S_i'
GPGPU-Sim uArch: Shader 8 bind to kernel 1 '_Z6vecAddPdS_S_i'
GPGPU-Sim uArch: Shader 7 bind to kernel 1 '_Z6vecAddPdS_S_i'
GPGPU-Sim uArch: Shader 45 bind to kernel 1 '_Z6vecAddPdS_S_i'
GPGPU-Sim uArch: Shader 6 bind to kernel 1 '_Z6vecAddPdS_S_i'
GPGPU-Sim uArch: Shader 5 bind to kernel 1 '_Z6vecAddPdS_S_i'
GPGPU-Sim uArch: Shader 23 bind to kernel 1 '_Z6vecAddPdS_S_i'
GPGPU-Sim uArch: Shader 32 bind to kernel 1 '_Z6vecAddPdS_S_i'
GPGPU-Sim uArch: Shader 41 bind to kernel 1 '_Z6vecAddPdS_S_i'
GPGPU-Sim uArch: Shader 12 bind to kernel 1 '_Z6vecAddPdS_S_i'
GPGPU-Sim uArch: Shader 34 bind to kernel 1 '_Z6vecAddPdS_S_i'
GPGPU-Sim uArch: Shader 19 bind to kernel 1 '_Z6vecAddPdS_S_i'
GPGPU-Sim uArch: Shader 38 bind to kernel 1 '_Z6vecAddPdS_S_i'
GPGPU-Sim uArch: Shader 26 bind to kernel 1 '_Z6vecAddPdS_S_i'
GPGPU-Sim uArch: Shader 18 bind to kernel 1 '_Z6vecAddPdS_S_i'
GPGPU-Sim uArch: Shader 33 bind to kernel 1 '_Z6vecAddPdS_S_i'
GPGPU-Sim uArch: Shader 29 bind to kernel 1 '_Z6vecAddPdS_S_i'
GPGPU-Sim uArch: Shader 16 bind to kernel 1 '_Z6vecAddPdS_S_i'
GPGPU-Sim uArch: Shader 2 bind to kernel 1 '_Z6vecAddPdS_S_i'
GPGPU-Sim uArch: Shader 20 bind to kernel 1 '_Z6vecAddPdS_S_i'
GPGPU-Sim uArch: Shader 31 bind to kernel 1 '_Z6vecAddPdS_S_i'
GPGPU-Sim uArch: Shader 46 bind to kernel 1 '_Z6vecAddPdS_S_i'
GPGPU-Sim uArch: Shader 0 bind to kernel 1 '_Z6vecAddPdS_S_i'
GPGPU-Sim uArch: Shader 15 bind to kernel 1 '_Z6vecAddPdS_S_i'
GPGPU-Sim uArch: Shader 44 bind to kernel 1 '_Z6vecAddPdS_S_i'
GPGPU-Sim uArch: Shader 27 bind to kernel 1 '_Z6vecAddPdS_S_i'
GPGPU-Sim uArch: Shader 35 bind to kernel 1 '_Z6vecAddPdS_S_i'
GPGPU-Sim uArch: Shader 39 bind to kernel 1 '_Z6vecAddPdS_S_i'
GPGPU-Sim uArch: Shader 9 bind to kernel 1 '_Z6vecAddPdS_S_i'
GPGPU-Sim uArch: Shader 11 bind to kernel 1 '_Z6vecAddPdS_S_i'
GPGPU-Sim uArch: Shader 36 bind to kernel 1 '_Z6vecAddPdS_S_i'
GPGPU-Sim uArch: Shader 37 bind to kernel 1 '_Z6vecAddPdS_S_i'
GPGPU-Sim uArch: Shader 22 bind to kernel 1 '_Z6vecAddPdS_S_i'
GPGPU-Sim uArch: Shader 13 bind to kernel 1 '_Z6vecAddPdS_S_i'
GPGPU-Sim uArch: Shader 4 bind to kernel 1 '_Z6vecAddPdS_S_i'
GPGPU-Sim uArch: Shader 42 bind to kernel 1 '_Z6vecAddPdS_S_i'
GPGPU-Sim uArch: Shader 40 bind to kernel 1 '_Z6vecAddPdS_S_i'
GPGPU-Sim uArch: Shader 43 bind to kernel 1 '_Z6vecAddPdS_S_i'
GPGPU-Sim uArch: Shader 25 bind to kernel 1 '_Z6vecAddPdS_S_i'
GPGPU-Sim uArch: Shader 3 bind to kernel 1 '_Z6vecAddPdS_S_i'
GPGPU-Sim uArch: Shader 47 bind to kernel 1 '_Z6vecAddPdS_S_i'
GPGPU-Sim uArch: Shader 21 bind to kernel 1 '_Z6vecAddPdS_S_i'
GPGPU-Sim uArch: Shader 30 bind to kernel 1 '_Z6vecAddPdS_S_i'
GPGPU-Sim uArch: Shader 1 bind to kernel 1 '_Z6vecAddPdS_S_i'
GPGPU-Sim uArch: Shader 24 bind to kernel 1 '_Z6vecAddPdS_S_i'
GPGPU-Sim uArch: Shader 17 bind to kernel 1 '_Z6vecAddPdS_S_i'
GPGPU-Sim uArch: Shader 10 bind to kernel 1 '_Z6vecAddPdS_S_i'
GPGPU-Sim uArch: Shader 28 bind to kernel 1 '_Z6vecAddPdS_S_i'
GPGPU-Sim uArch: Shader 7 bind to kernel 1 '_Z6vecAddPdS_S_i'
GPGPU-Sim uArch: Shader 45 bind to kernel 1 '_Z6vecAddPdS_S_i'
GPGPU-Sim uArch: Shader 14 bind to kernel 1 '_Z6vecAddPdS_S_i'
GPGPU-Sim uArch: Shader 8 bind to kernel 1 '_Z6vecAddPdS_S_i'
GPGPU-Sim uArch: Shader 6 bind to kernel 1 '_Z6vecAddPdS_S_i'
GPGPU-Sim uArch: Shader 5 bind to kernel 1 '_Z6vecAddPdS_S_i'
GPGPU-Sim uArch: Shader 32 bind to kernel 1 '_Z6vecAddPdS_S_i'
GPGPU-Sim uArch: Shader 23 bind to kernel 1 '_Z6vecAddPdS_S_i'
GPGPU-Sim uArch: Shader 41 bind to kernel 1 '_Z6vecAddPdS_S_i'
GPGPU-Sim uArch: Shader 12 bind to kernel 1 '_Z6vecAddPdS_S_i'
GPGPU-Sim uArch: Shader 19 bind to kernel 1 '_Z6vecAddPdS_S_i'
GPGPU-Sim uArch: Shader 34 bind to kernel 1 '_Z6vecAddPdS_S_i'
GPGPU-Sim uArch: Shader 38 bind to kernel 1 '_Z6vecAddPdS_S_i'
GPGPU-Sim uArch: Shader 26 bind to kernel 1 '_Z6vecAddPdS_S_i'
GPGPU-Sim uArch: Shader 18 bind to kernel 1 '_Z6vecAddPdS_S_i'
GPGPU-Sim uArch: Shader 29 bind to kernel 1 '_Z6vecAddPdS_S_i'
GPGPU-Sim uArch: Shader 33 bind to kernel 1 '_Z6vecAddPdS_S_i'
GPGPU-Sim uArch: Shader 16 bind to kernel 1 '_Z6vecAddPdS_S_i'
GPGPU-Sim uArch: Shader 46 bind to kernel 1 '_Z6vecAddPdS_S_i'
GPGPU-Sim uArch: Shader 2 bind to kernel 1 '_Z6vecAddPdS_S_i'
GPGPU-Sim uArch: Shader 20 bind to kernel 1 '_Z6vecAddPdS_S_i'
GPGPU-Sim uArch: Shader 0 bind to kernel 1 '_Z6vecAddPdS_S_i'
GPGPU-Sim uArch: Shader 31 bind to kernel 1 '_Z6vecAddPdS_S_i'
GPGPU-Sim uArch: Shader 44 bind to kernel 1 '_Z6vecAddPdS_S_i'
GPGPU-Sim uArch: Shader 11 bind to kernel 1 '_Z6vecAddPdS_S_i'
GPGPU-Sim uArch: Shader 15 bind to kernel 1 '_Z6vecAddPdS_S_i'
GPGPU-Sim uArch: Shader 37 bind to kernel 1 '_Z6vecAddPdS_S_i'
GPGPU-Sim uArch: Shader 9 bind to kernel 1 '_Z6vecAddPdS_S_i'
GPGPU-Sim uArch: Shader 35 bind to kernel 1 '_Z6vecAddPdS_S_i'
GPGPU-Sim uArch: Shader 27 bind to kernel 1 '_Z6vecAddPdS_S_i'
GPGPU-Sim uArch: Shader 39 bind to kernel 1 '_Z6vecAddPdS_S_i'
GPGPU-Sim uArch: Shader 4 bind to kernel 1 '_Z6vecAddPdS_S_i'
GPGPU-Sim uArch: Shader 36 bind to kernel 1 '_Z6vecAddPdS_S_i'
GPGPU-Sim uArch: Shader 13 bind to kernel 1 '_Z6vecAddPdS_S_i'
GPGPU-Sim uArch: Shader 22 bind to kernel 1 '_Z6vecAddPdS_S_i'
GPGPU-Sim uArch: Shader 40 bind to kernel 1 '_Z6vecAddPdS_S_i'
GPGPU-Sim uArch: Shader 42 bind to kernel 1 '_Z6vecAddPdS_S_i'
GPGPU-Sim uArch: Shader 43 bind to kernel 1 '_Z6vecAddPdS_S_i'
GPGPU-Sim uArch: Shader 25 bind to kernel 1 '_Z6vecAddPdS_S_i'
GPGPU-Sim uArch: Shader 47 bind to kernel 1 '_Z6vecAddPdS_S_i'
GPGPU-Sim uArch: Shader 3 bind to kernel 1 '_Z6vecAddPdS_S_i'
GPGPU-Sim uArch: Shader 21 bind to kernel 1 '_Z6vecAddPdS_S_i'
GPGPU-Sim uArch: Shader 24 bind to kernel 1 '_Z6vecAddPdS_S_i'
GPGPU-Sim uArch: Shader 30 bind to kernel 1 '_Z6vecAddPdS_S_i'
GPGPU-Sim uArch: Shader 17 bind to kernel 1 '_Z6vecAddPdS_S_i'
GPGPU-Sim uArch: Shader 45 bind to kernel 1 '_Z6vecAddPdS_S_i'
GPGPU-Sim uArch: Shader 1 bind to kernel 1 '_Z6vecAddPdS_S_i'
GPGPU-Sim uArch: Shader 10 bind to kernel 1 '_Z6vecAddPdS_S_i'
GPGPU-Sim uArch: Shader 28 bind to kernel 1 '_Z6vecAddPdS_S_i'
GPGPU-Sim uArch: Shader 7 bind to kernel 1 '_Z6vecAddPdS_S_i'
GPGPU-Sim uArch: Shader 14 bind to kernel 1 '_Z6vecAddPdS_S_i'
GPGPU-Sim uArch: Shader 5 bind to kernel 1 '_Z6vecAddPdS_S_i'
GPGPU-Sim uArch: Shader 6 bind to kernel 1 '_Z6vecAddPdS_S_i'
GPGPU-Sim uArch: Shader 41 bind to kernel 1 '_Z6vecAddPdS_S_i'
GPGPU-Sim uArch: Shader 8 bind to kernel 1 '_Z6vecAddPdS_S_i'
GPGPU-Sim uArch: Shader 32 bind to kernel 1 '_Z6vecAddPdS_S_i'
GPGPU-Sim uArch: Shader 23 bind to kernel 1 '_Z6vecAddPdS_S_i'
GPGPU-Sim uArch: Shader 12 bind to kernel 1 '_Z6vecAddPdS_S_i'
GPGPU-Sim uArch: Shader 34 bind to kernel 1 '_Z6vecAddPdS_S_i'
GPGPU-Sim uArch: Shader 19 bind to kernel 1 '_Z6vecAddPdS_S_i'
GPGPU-Sim uArch: Shader 38 bind to kernel 1 '_Z6vecAddPdS_S_i'
GPGPU-Sim uArch: Shader 26 bind to kernel 1 '_Z6vecAddPdS_S_i'
GPGPU-Sim uArch: Shader 18 bind to kernel 1 '_Z6vecAddPdS_S_i'
GPGPU-Sim uArch: Shader 29 bind to kernel 1 '_Z6vecAddPdS_S_i'
GPGPU-Sim uArch: Shader 33 bind to kernel 1 '_Z6vecAddPdS_S_i'
GPGPU-Sim uArch: Shader 46 bind to kernel 1 '_Z6vecAddPdS_S_i'
GPGPU-Sim uArch: Shader 16 bind to kernel 1 '_Z6vecAddPdS_S_i'
GPGPU-Sim uArch: Shader 0 bind to kernel 1 '_Z6vecAddPdS_S_i'
GPGPU-Sim uArch: Shader 20 bind to kernel 1 '_Z6vecAddPdS_S_i'
GPGPU-Sim uArch: Shader 31 bind to kernel 1 '_Z6vecAddPdS_S_i'
GPGPU-Sim uArch: Shader 2 bind to kernel 1 '_Z6vecAddPdS_S_i'
GPGPU-Sim uArch: Shader 39 bind to kernel 1 '_Z6vecAddPdS_S_i'
GPGPU-Sim uArch: Shader 44 bind to kernel 1 '_Z6vecAddPdS_S_i'
GPGPU-Sim uArch: Shader 37 bind to kernel 1 '_Z6vecAddPdS_S_i'
GPGPU-Sim uArch: Shader 11 bind to kernel 1 '_Z6vecAddPdS_S_i'
GPGPU-Sim uArch: Shader 27 bind to kernel 1 '_Z6vecAddPdS_S_i'
GPGPU-Sim uArch: Shader 9 bind to kernel 1 '_Z6vecAddPdS_S_i'
GPGPU-Sim uArch: Shader 35 bind to kernel 1 '_Z6vecAddPdS_S_i'
GPGPU-Sim uArch: Shader 15 bind to kernel 1 '_Z6vecAddPdS_S_i'
GPGPU-Sim uArch: Shader 36 bind to kernel 1 '_Z6vecAddPdS_S_i'
GPGPU-Sim uArch: Shader 4 bind to kernel 1 '_Z6vecAddPdS_S_i'
GPGPU-Sim uArch: Shader 22 bind to kernel 1 '_Z6vecAddPdS_S_i'
GPGPU-Sim uArch: Shader 13 bind to kernel 1 '_Z6vecAddPdS_S_i'
GPGPU-Sim uArch: Shader 40 bind to kernel 1 '_Z6vecAddPdS_S_i'
GPGPU-Sim uArch: Shader 42 bind to kernel 1 '_Z6vecAddPdS_S_i'
GPGPU-Sim uArch: Shader 43 bind to kernel 1 '_Z6vecAddPdS_S_i'
GPGPU-Sim uArch: Shader 25 bind to kernel 1 '_Z6vecAddPdS_S_i'
GPGPU-Sim uArch: Shader 3 bind to kernel 1 '_Z6vecAddPdS_S_i'
GPGPU-Sim uArch: Shader 21 bind to kernel 1 '_Z6vecAddPdS_S_i'
GPGPU-Sim uArch: Shader 47 bind to kernel 1 '_Z6vecAddPdS_S_i'
GPGPU-Sim uArch: Shader 24 bind to kernel 1 '_Z6vecAddPdS_S_i'
GPGPU-Sim uArch: Shader 45 bind to kernel 1 '_Z6vecAddPdS_S_i'
GPGPU-Sim uArch: Shader 17 bind to kernel 1 '_Z6vecAddPdS_S_i'
GPGPU-Sim uArch: Shader 30 bind to kernel 1 '_Z6vecAddPdS_S_i'
GPGPU-Sim uArch: Shader 1 bind to kernel 1 '_Z6vecAddPdS_S_i'
GPGPU-Sim uArch: Shader 10 bind to kernel 1 '_Z6vecAddPdS_S_i'
GPGPU-Sim uArch: Shader 7 bind to kernel 1 '_Z6vecAddPdS_S_i'
GPGPU-Sim uArch: Shader 6 bind to kernel 1 '_Z6vecAddPdS_S_i'
GPGPU-Sim uArch: Shader 28 bind to kernel 1 '_Z6vecAddPdS_S_i'
GPGPU-Sim uArch: Shader 14 bind to kernel 1 '_Z6vecAddPdS_S_i'
GPGPU-Sim uArch: Shader 41 bind to kernel 1 '_Z6vecAddPdS_S_i'
GPGPU-Sim uArch: Shader 5 bind to kernel 1 '_Z6vecAddPdS_S_i'
GPGPU-Sim uArch: Shader 8 bind to kernel 1 '_Z6vecAddPdS_S_i'
GPGPU-Sim uArch: Shader 32 bind to kernel 1 '_Z6vecAddPdS_S_i'
GPGPU-Sim uArch: Shader 12 bind to kernel 1 '_Z6vecAddPdS_S_i'
GPGPU-Sim uArch: Shader 23 bind to kernel 1 '_Z6vecAddPdS_S_i'
GPGPU-Sim uArch: Shader 34 bind to kernel 1 '_Z6vecAddPdS_S_i'
GPGPU-Sim uArch: Shader 19 bind to kernel 1 '_Z6vecAddPdS_S_i'
GPGPU-Sim uArch: Shader 26 bind to kernel 1 '_Z6vecAddPdS_S_i'
GPGPU-Sim uArch: Shader 38 bind to kernel 1 '_Z6vecAddPdS_S_i'
GPGPU-Sim uArch: Shader 18 bind to kernel 1 '_Z6vecAddPdS_S_i'
GPGPU-Sim uArch: Shader 29 bind to kernel 1 '_Z6vecAddPdS_S_i'
GPGPU-Sim uArch: Shader 33 bind to kernel 1 '_Z6vecAddPdS_S_i'
GPGPU-Sim uArch: Shader 46 bind to kernel 1 '_Z6vecAddPdS_S_i'
GPGPU-Sim uArch: Shader 16 bind to kernel 1 '_Z6vecAddPdS_S_i'
GPGPU-Sim uArch: Shader 0 bind to kernel 1 '_Z6vecAddPdS_S_i'
GPGPU-Sim uArch: Shader 31 bind to kernel 1 '_Z6vecAddPdS_S_i'
GPGPU-Sim uArch: Shader 20 bind to kernel 1 '_Z6vecAddPdS_S_i'
GPGPU-Sim uArch: Shader 2 bind to kernel 1 '_Z6vecAddPdS_S_i'
GPGPU-Sim uArch: Shader 39 bind to kernel 1 '_Z6vecAddPdS_S_i'
GPGPU-Sim uArch: Shader 37 bind to kernel 1 '_Z6vecAddPdS_S_i'
GPGPU-Sim uArch: Shader 27 bind to kernel 1 '_Z6vecAddPdS_S_i'
GPGPU-Sim uArch: Shader 44 bind to kernel 1 '_Z6vecAddPdS_S_i'
GPGPU-Sim uArch: Shader 11 bind to kernel 1 '_Z6vecAddPdS_S_i'
GPGPU-Sim uArch: Shader 9 bind to kernel 1 '_Z6vecAddPdS_S_i'
GPGPU-Sim uArch: Shader 15 bind to kernel 1 '_Z6vecAddPdS_S_i'
GPGPU-Sim uArch: Shader 35 bind to kernel 1 '_Z6vecAddPdS_S_i'
GPGPU-Sim uArch: Shader 36 bind to kernel 1 '_Z6vecAddPdS_S_i'
GPGPU-Sim uArch: Shader 4 bind to kernel 1 '_Z6vecAddPdS_S_i'
GPGPU-Sim uArch: Shader 22 bind to kernel 1 '_Z6vecAddPdS_S_i'
GPGPU-Sim uArch: Shader 13 bind to kernel 1 '_Z6vecAddPdS_S_i'
GPGPU-Sim uArch: Shader 40 bind to kernel 1 '_Z6vecAddPdS_S_i'
GPGPU-Sim uArch: Shader 42 bind to kernel 1 '_Z6vecAddPdS_S_i'
GPGPU-Sim uArch: Shader 43 bind to kernel 1 '_Z6vecAddPdS_S_i'
GPGPU-Sim uArch: Shader 25 bind to kernel 1 '_Z6vecAddPdS_S_i'
GPGPU-Sim uArch: Shader 45 bind to kernel 1 '_Z6vecAddPdS_S_i'
GPGPU-Sim uArch: Shader 3 bind to kernel 1 '_Z6vecAddPdS_S_i'
GPGPU-Sim uArch: Shader 1 bind to kernel 1 '_Z6vecAddPdS_S_i'
GPGPU-Sim uArch: Shader 21 bind to kernel 1 '_Z6vecAddPdS_S_i'
GPGPU-Sim uArch: Shader 24 bind to kernel 1 '_Z6vecAddPdS_S_i'
GPGPU-Sim uArch: Shader 47 bind to kernel 1 '_Z6vecAddPdS_S_i'
GPGPU-Sim uArch: Shader 17 bind to kernel 1 '_Z6vecAddPdS_S_i'
GPGPU-Sim uArch: Shader 7 bind to kernel 1 '_Z6vecAddPdS_S_i'
GPGPU-Sim uArch: Shader 10 bind to kernel 1 '_Z6vecAddPdS_S_i'
GPGPU-Sim uArch: Shader 28 bind to kernel 1 '_Z6vecAddPdS_S_i'
GPGPU-Sim uArch: Shader 30 bind to kernel 1 '_Z6vecAddPdS_S_i'
GPGPU-Sim uArch: Shader 41 bind to kernel 1 '_Z6vecAddPdS_S_i'
GPGPU-Sim uArch: Shader 14 bind to kernel 1 '_Z6vecAddPdS_S_i'
GPGPU-Sim uArch: Shader 6 bind to kernel 1 '_Z6vecAddPdS_S_i'
GPGPU-Sim uArch: Shader 8 bind to kernel 1 '_Z6vecAddPdS_S_i'
GPGPU-Sim uArch: Shader 5 bind to kernel 1 '_Z6vecAddPdS_S_i'
GPGPU-Sim uArch: Shader 23 bind to kernel 1 '_Z6vecAddPdS_S_i'
GPGPU-Sim uArch: Shader 32 bind to kernel 1 '_Z6vecAddPdS_S_i'
GPGPU-Sim uArch: Shader 12 bind to kernel 1 '_Z6vecAddPdS_S_i'
GPGPU-Sim uArch: Shader 34 bind to kernel 1 '_Z6vecAddPdS_S_i'
GPGPU-Sim uArch: Shader 26 bind to kernel 1 '_Z6vecAddPdS_S_i'
GPGPU-Sim uArch: Shader 19 bind to kernel 1 '_Z6vecAddPdS_S_i'
GPGPU-Sim uArch: Shader 38 bind to kernel 1 '_Z6vecAddPdS_S_i'
GPGPU-Sim uArch: Shader 18 bind to kernel 1 '_Z6vecAddPdS_S_i'
GPGPU-Sim uArch: Shader 29 bind to kernel 1 '_Z6vecAddPdS_S_i'
GPGPU-Sim uArch: Shader 33 bind to kernel 1 '_Z6vecAddPdS_S_i'
GPGPU-Sim uArch: Shader 46 bind to kernel 1 '_Z6vecAddPdS_S_i'
GPGPU-Sim uArch: Shader 16 bind to kernel 1 '_Z6vecAddPdS_S_i'
GPGPU-Sim uArch: Shader 0 bind to kernel 1 '_Z6vecAddPdS_S_i'
GPGPU-Sim uArch: Shader 44 bind to kernel 1 '_Z6vecAddPdS_S_i'
GPGPU-Sim uArch: Shader 31 bind to kernel 1 '_Z6vecAddPdS_S_i'
GPGPU-Sim uArch: Shader 37 bind to kernel 1 '_Z6vecAddPdS_S_i'
GPGPU-Sim uArch: Shader 27 bind to kernel 1 '_Z6vecAddPdS_S_i'
GPGPU-Sim uArch: Shader 39 bind to kernel 1 '_Z6vecAddPdS_S_i'
GPGPU-Sim uArch: Shader 20 bind to kernel 1 '_Z6vecAddPdS_S_i'
GPGPU-Sim uArch: Shader 2 bind to kernel 1 '_Z6vecAddPdS_S_i'
GPGPU-Sim uArch: Shader 9 bind to kernel 1 '_Z6vecAddPdS_S_i'
GPGPU-Sim uArch: Shader 15 bind to kernel 1 '_Z6vecAddPdS_S_i'
GPGPU-Sim uArch: Shader 35 bind to kernel 1 '_Z6vecAddPdS_S_i'
GPGPU-Sim uArch: Shader 36 bind to kernel 1 '_Z6vecAddPdS_S_i'
GPGPU-Sim uArch: Shader 11 bind to kernel 1 '_Z6vecAddPdS_S_i'
GPGPU-Sim uArch: Shader 22 bind to kernel 1 '_Z6vecAddPdS_S_i'
GPGPU-Sim uArch: Shader 4 bind to kernel 1 '_Z6vecAddPdS_S_i'
GPGPU-Sim uArch: Shader 13 bind to kernel 1 '_Z6vecAddPdS_S_i'
GPGPU-Sim uArch: Shader 40 bind to kernel 1 '_Z6vecAddPdS_S_i'
GPGPU-Sim uArch: Shader 42 bind to kernel 1 '_Z6vecAddPdS_S_i'
GPGPU-Sim uArch: Shader 43 bind to kernel 1 '_Z6vecAddPdS_S_i'
GPGPU-Sim uArch: Shader 25 bind to kernel 1 '_Z6vecAddPdS_S_i'
GPGPU-Sim uArch: Shader 45 bind to kernel 1 '_Z6vecAddPdS_S_i'
GPGPU-Sim uArch: Shader 1 bind to kernel 1 '_Z6vecAddPdS_S_i'
GPGPU-Sim uArch: Shader 3 bind to kernel 1 '_Z6vecAddPdS_S_i'
GPGPU-Sim uArch: Shader 24 bind to kernel 1 '_Z6vecAddPdS_S_i'
GPGPU-Sim uArch: Shader 21 bind to kernel 1 '_Z6vecAddPdS_S_i'
GPGPU-Sim uArch: Shader 17 bind to kernel 1 '_Z6vecAddPdS_S_i'
GPGPU-Sim uArch: Shader 10 bind to kernel 1 '_Z6vecAddPdS_S_i'
GPGPU-Sim uArch: Shader 28 bind to kernel 1 '_Z6vecAddPdS_S_i'
GPGPU-Sim uArch: Shader 47 bind to kernel 1 '_Z6vecAddPdS_S_i'
GPGPU-Sim uArch: Shader 8 bind to kernel 1 '_Z6vecAddPdS_S_i'
GPGPU-Sim uArch: Shader 30 bind to kernel 1 '_Z6vecAddPdS_S_i'
GPGPU-Sim uArch: Shader 7 bind to kernel 1 '_Z6vecAddPdS_S_i'
GPGPU-Sim uArch: Shader 6 bind to kernel 1 '_Z6vecAddPdS_S_i'
GPGPU-Sim uArch: Shader 41 bind to kernel 1 '_Z6vecAddPdS_S_i'
GPGPU-Sim uArch: Shader 14 bind to kernel 1 '_Z6vecAddPdS_S_i'
GPGPU-Sim uArch: Shader 5 bind to kernel 1 '_Z6vecAddPdS_S_i'
GPGPU-Sim uArch: Shader 12 bind to kernel 1 '_Z6vecAddPdS_S_i'
GPGPU-Sim uArch: Shader 32 bind to kernel 1 '_Z6vecAddPdS_S_i'
GPGPU-Sim uArch: Shader 34 bind to kernel 1 '_Z6vecAddPdS_S_i'
GPGPU-Sim uArch: Shader 23 bind to kernel 1 '_Z6vecAddPdS_S_i'
GPGPU-Sim uArch: Shader 26 bind to kernel 1 '_Z6vecAddPdS_S_i'
GPGPU-Sim uArch: Shader 19 bind to kernel 1 '_Z6vecAddPdS_S_i'
GPGPU-Sim uArch: Shader 38 bind to kernel 1 '_Z6vecAddPdS_S_i'
GPGPU-Sim uArch: Shader 18 bind to kernel 1 '_Z6vecAddPdS_S_i'
GPGPU-Sim uArch: Shader 33 bind to kernel 1 '_Z6vecAddPdS_S_i'
GPGPU-Sim uArch: Shader 16 bind to kernel 1 '_Z6vecAddPdS_S_i'
GPGPU-Sim uArch: Shader 29 bind to kernel 1 '_Z6vecAddPdS_S_i'
GPGPU-Sim uArch: Shader 46 bind to kernel 1 '_Z6vecAddPdS_S_i'
GPGPU-Sim uArch: Shader 0 bind to kernel 1 '_Z6vecAddPdS_S_i'
GPGPU-Sim uArch: Shader 31 bind to kernel 1 '_Z6vecAddPdS_S_i'
GPGPU-Sim uArch: Shader 44 bind to kernel 1 '_Z6vecAddPdS_S_i'
GPGPU-Sim uArch: Shader 27 bind to kernel 1 '_Z6vecAddPdS_S_i'
GPGPU-Sim uArch: Shader 37 bind to kernel 1 '_Z6vecAddPdS_S_i'
GPGPU-Sim uArch: Shader 2 bind to kernel 1 '_Z6vecAddPdS_S_i'
GPGPU-Sim uArch: Shader 39 bind to kernel 1 '_Z6vecAddPdS_S_i'
GPGPU-Sim uArch: Shader 15 bind to kernel 1 '_Z6vecAddPdS_S_i'
GPGPU-Sim uArch: Shader 9 bind to kernel 1 '_Z6vecAddPdS_S_i'
GPGPU-Sim uArch: Shader 20 bind to kernel 1 '_Z6vecAddPdS_S_i'
GPGPU-Sim uArch: Shader 11 bind to kernel 1 '_Z6vecAddPdS_S_i'
GPGPU-Sim uArch: Shader 35 bind to kernel 1 '_Z6vecAddPdS_S_i'
GPGPU-Sim uArch: Shader 22 bind to kernel 1 '_Z6vecAddPdS_S_i'
GPGPU-Sim uArch: Shader 4 bind to kernel 1 '_Z6vecAddPdS_S_i'
GPGPU-Sim uArch: Shader 36 bind to kernel 1 '_Z6vecAddPdS_S_i'
GPGPU-Sim uArch: Shader 13 bind to kernel 1 '_Z6vecAddPdS_S_i'
GPGPU-Sim uArch: Shader 40 bind to kernel 1 '_Z6vecAddPdS_S_i'
GPGPU-Sim uArch: Shader 43 bind to kernel 1 '_Z6vecAddPdS_S_i'
GPGPU-Sim uArch: Shader 42 bind to kernel 1 '_Z6vecAddPdS_S_i'
GPGPU-Sim uArch: Shader 25 bind to kernel 1 '_Z6vecAddPdS_S_i'
GPGPU-Sim uArch: Shader 45 bind to kernel 1 '_Z6vecAddPdS_S_i'
GPGPU-Sim uArch: Shader 1 bind to kernel 1 '_Z6vecAddPdS_S_i'
GPGPU-Sim uArch: Shader 3 bind to kernel 1 '_Z6vecAddPdS_S_i'
GPGPU-Sim uArch: Shader 21 bind to kernel 1 '_Z6vecAddPdS_S_i'
GPGPU-Sim uArch: Shader 24 bind to kernel 1 '_Z6vecAddPdS_S_i'
GPGPU-Sim uArch: Shader 10 bind to kernel 1 '_Z6vecAddPdS_S_i'
GPGPU-Sim uArch: Shader 47 bind to kernel 1 '_Z6vecAddPdS_S_i'
GPGPU-Sim uArch: Shader 17 bind to kernel 1 '_Z6vecAddPdS_S_i'
GPGPU-Sim uArch: Shader 28 bind to kernel 1 '_Z6vecAddPdS_S_i'
GPGPU-Sim uArch: Shader 8 bind to kernel 1 '_Z6vecAddPdS_S_i'
GPGPU-Sim uArch: Shader 6 bind to kernel 1 '_Z6vecAddPdS_S_i'
GPGPU-Sim uArch: Shader 41 bind to kernel 1 '_Z6vecAddPdS_S_i'
GPGPU-Sim uArch: Shader 7 bind to kernel 1 '_Z6vecAddPdS_S_i'
GPGPU-Sim uArch: Shader 5 bind to kernel 1 '_Z6vecAddPdS_S_i'
GPGPU-Sim uArch: Shader 14 bind to kernel 1 '_Z6vecAddPdS_S_i'
GPGPU-Sim uArch: Shader 30 bind to kernel 1 '_Z6vecAddPdS_S_i'
GPGPU-Sim uArch: Shader 12 bind to kernel 1 '_Z6vecAddPdS_S_i'
GPGPU-Sim uArch: Shader 32 bind to kernel 1 '_Z6vecAddPdS_S_i'
GPGPU-Sim uArch: Shader 34 bind to kernel 1 '_Z6vecAddPdS_S_i'
GPGPU-Sim uArch: Shader 26 bind to kernel 1 '_Z6vecAddPdS_S_i'
GPGPU-Sim uArch: Shader 23 bind to kernel 1 '_Z6vecAddPdS_S_i'
GPGPU-Sim uArch: Shader 19 bind to kernel 1 '_Z6vecAddPdS_S_i'
GPGPU-Sim uArch: Shader 38 bind to kernel 1 '_Z6vecAddPdS_S_i'
GPGPU-Sim uArch: Shader 18 bind to kernel 1 '_Z6vecAddPdS_S_i'
GPGPU-Sim uArch: Shader 33 bind to kernel 1 '_Z6vecAddPdS_S_i'
GPGPU-Sim uArch: Shader 31 bind to kernel 1 '_Z6vecAddPdS_S_i'
GPGPU-Sim uArch: Shader 0 bind to kernel 1 '_Z6vecAddPdS_S_i'
GPGPU-Sim uArch: Shader 46 bind to kernel 1 '_Z6vecAddPdS_S_i'
GPGPU-Sim uArch: Shader 29 bind to kernel 1 '_Z6vecAddPdS_S_i'
GPGPU-Sim uArch: Shader 16 bind to kernel 1 '_Z6vecAddPdS_S_i'
GPGPU-Sim uArch: Shader 27 bind to kernel 1 '_Z6vecAddPdS_S_i'
GPGPU-Sim uArch: Shader 44 bind to kernel 1 '_Z6vecAddPdS_S_i'
GPGPU-Sim uArch: Shader 9 bind to kernel 1 '_Z6vecAddPdS_S_i'
GPGPU-Sim uArch: Shader 11 bind to kernel 1 '_Z6vecAddPdS_S_i'
GPGPU-Sim uArch: Shader 15 bind to kernel 1 '_Z6vecAddPdS_S_i'
GPGPU-Sim uArch: Shader 37 bind to kernel 1 '_Z6vecAddPdS_S_i'
GPGPU-Sim uArch: Shader 20 bind to kernel 1 '_Z6vecAddPdS_S_i'
GPGPU-Sim uArch: Shader 35 bind to kernel 1 '_Z6vecAddPdS_S_i'
GPGPU-Sim uArch: Shader 2 bind to kernel 1 '_Z6vecAddPdS_S_i'
GPGPU-Sim uArch: Shader 39 bind to kernel 1 '_Z6vecAddPdS_S_i'
GPGPU-Sim uArch: Shader 40 bind to kernel 1 '_Z6vecAddPdS_S_i'
GPGPU-Sim uArch: Shader 22 bind to kernel 1 '_Z6vecAddPdS_S_i'
GPGPU-Sim uArch: Shader 36 bind to kernel 1 '_Z6vecAddPdS_S_i'
GPGPU-Sim uArch: Shader 4 bind to kernel 1 '_Z6vecAddPdS_S_i'
GPGPU-Sim uArch: Shader 13 bind to kernel 1 '_Z6vecAddPdS_S_i'
GPGPU-Sim uArch: Shader 42 bind to kernel 1 '_Z6vecAddPdS_S_i'
GPGPU-Sim uArch: Shader 43 bind to kernel 1 '_Z6vecAddPdS_S_i'
GPGPU-Sim uArch: Shader 25 bind to kernel 1 '_Z6vecAddPdS_S_i'
GPGPU-Sim uArch: Shader 1 bind to kernel 1 '_Z6vecAddPdS_S_i'
GPGPU-Sim uArch: Shader 21 bind to kernel 1 '_Z6vecAddPdS_S_i'
GPGPU-Sim uArch: Shader 3 bind to kernel 1 '_Z6vecAddPdS_S_i'
GPGPU-Sim uArch: Shader 45 bind to kernel 1 '_Z6vecAddPdS_S_i'
GPGPU-Sim uArch: Shader 24 bind to kernel 1 '_Z6vecAddPdS_S_i'
GPGPU-Sim uArch: Shader 10 bind to kernel 1 '_Z6vecAddPdS_S_i'
GPGPU-Sim uArch: Shader 47 bind to kernel 1 '_Z6vecAddPdS_S_i'
GPGPU-Sim uArch: Shader 17 bind to kernel 1 '_Z6vecAddPdS_S_i'
GPGPU-Sim uArch: Shader 7 bind to kernel 1 '_Z6vecAddPdS_S_i'
GPGPU-Sim uArch: Shader 41 bind to kernel 1 '_Z6vecAddPdS_S_i'
GPGPU-Sim uArch: Shader 28 bind to kernel 1 '_Z6vecAddPdS_S_i'
GPGPU-Sim uArch: Shader 8 bind to kernel 1 '_Z6vecAddPdS_S_i'
GPGPU-Sim uArch: Shader 6 bind to kernel 1 '_Z6vecAddPdS_S_i'
GPGPU-Sim uArch: Shader 14 bind to kernel 1 '_Z6vecAddPdS_S_i'
GPGPU-Sim uArch: Shader 5 bind to kernel 1 '_Z6vecAddPdS_S_i'
GPGPU-Sim uArch: Shader 12 bind to kernel 1 '_Z6vecAddPdS_S_i'
GPGPU-Sim uArch: Shader 30 bind to kernel 1 '_Z6vecAddPdS_S_i'
GPGPU-Sim uArch: Shader 32 bind to kernel 1 '_Z6vecAddPdS_S_i'
GPGPU-Sim uArch: Shader 34 bind to kernel 1 '_Z6vecAddPdS_S_i'
GPGPU-Sim uArch: Shader 26 bind to kernel 1 '_Z6vecAddPdS_S_i'
GPGPU-Sim uArch: Shader 23 bind to kernel 1 '_Z6vecAddPdS_S_i'
GPGPU-Sim uArch: Shader 19 bind to kernel 1 '_Z6vecAddPdS_S_i'
GPGPU-Sim uArch: Shader 38 bind to kernel 1 '_Z6vecAddPdS_S_i'
GPGPU-Sim uArch: Shader 18 bind to kernel 1 '_Z6vecAddPdS_S_i'
GPGPU-Sim uArch: Shader 33 bind to kernel 1 '_Z6vecAddPdS_S_i'
GPGPU-Sim uArch: Shader 31 bind to kernel 1 '_Z6vecAddPdS_S_i'
GPGPU-Sim uArch: Shader 46 bind to kernel 1 '_Z6vecAddPdS_S_i'
GPGPU-Sim uArch: Shader 0 bind to kernel 1 '_Z6vecAddPdS_S_i'
GPGPU-Sim uArch: Shader 29 bind to kernel 1 '_Z6vecAddPdS_S_i'
GPGPU-Sim uArch: Shader 37 bind to kernel 1 '_Z6vecAddPdS_S_i'
GPGPU-Sim uArch: Shader 16 bind to kernel 1 '_Z6vecAddPdS_S_i'
GPGPU-Sim uArch: Shader 35 bind to kernel 1 '_Z6vecAddPdS_S_i'
GPGPU-Sim uArch: Shader 39 bind to kernel 1 '_Z6vecAddPdS_S_i'
GPGPU-Sim uArch: Shader 2 bind to kernel 1 '_Z6vecAddPdS_S_i'
GPGPU-Sim uArch: Shader 15 bind to kernel 1 '_Z6vecAddPdS_S_i'
GPGPU-Sim uArch: Shader 20 bind to kernel 1 '_Z6vecAddPdS_S_i'
GPGPU-Sim uArch: Shader 44 bind to kernel 1 '_Z6vecAddPdS_S_i'
GPGPU-Sim uArch: Shader 11 bind to kernel 1 '_Z6vecAddPdS_S_i'
GPGPU-Sim uArch: Shader 27 bind to kernel 1 '_Z6vecAddPdS_S_i'
GPGPU-Sim uArch: Shader 40 bind to kernel 1 '_Z6vecAddPdS_S_i'
GPGPU-Sim uArch: Shader 9 bind to kernel 1 '_Z6vecAddPdS_S_i'
GPGPU-Sim uArch: Shader 4 bind to kernel 1 '_Z6vecAddPdS_S_i'
GPGPU-Sim uArch: Shader 36 bind to kernel 1 '_Z6vecAddPdS_S_i'
GPGPU-Sim uArch: Shader 22 bind to kernel 1 '_Z6vecAddPdS_S_i'
GPGPU-Sim uArch: Shader 13 bind to kernel 1 '_Z6vecAddPdS_S_i'
GPGPU-Sim uArch: Shader 42 bind to kernel 1 '_Z6vecAddPdS_S_i'
GPGPU-Sim uArch: Shader 25 bind to kernel 1 '_Z6vecAddPdS_S_i'
GPGPU-Sim uArch: Shader 43 bind to kernel 1 '_Z6vecAddPdS_S_i'
GPGPU-Sim uArch: Shader 45 bind to kernel 1 '_Z6vecAddPdS_S_i'
GPGPU-Sim uArch: Shader 21 bind to kernel 1 '_Z6vecAddPdS_S_i'
GPGPU-Sim uArch: Shader 1 bind to kernel 1 '_Z6vecAddPdS_S_i'
GPGPU-Sim uArch: Shader 24 bind to kernel 1 '_Z6vecAddPdS_S_i'
GPGPU-Sim uArch: Shader 3 bind to kernel 1 '_Z6vecAddPdS_S_i'
GPGPU-Sim uArch: Shader 10 bind to kernel 1 '_Z6vecAddPdS_S_i'
GPGPU-Sim uArch: Shader 47 bind to kernel 1 '_Z6vecAddPdS_S_i'
GPGPU-Sim uArch: Shader 17 bind to kernel 1 '_Z6vecAddPdS_S_i'
GPGPU-Sim uArch: Shader 6 bind to kernel 1 '_Z6vecAddPdS_S_i'
GPGPU-Sim uArch: Shader 7 bind to kernel 1 '_Z6vecAddPdS_S_i'
GPGPU-Sim uArch: Shader 8 bind to kernel 1 '_Z6vecAddPdS_S_i'
GPGPU-Sim uArch: Shader 30 bind to kernel 1 '_Z6vecAddPdS_S_i'
GPGPU-Sim uArch: Shader 41 bind to kernel 1 '_Z6vecAddPdS_S_i'
GPGPU-Sim uArch: Shader 14 bind to kernel 1 '_Z6vecAddPdS_S_i'
GPGPU-Sim uArch: Shader 28 bind to kernel 1 '_Z6vecAddPdS_S_i'
GPGPU-Sim uArch: Shader 12 bind to kernel 1 '_Z6vecAddPdS_S_i'
GPGPU-Sim uArch: Shader 5 bind to kernel 1 '_Z6vecAddPdS_S_i'
GPGPU-Sim uArch: Shader 32 bind to kernel 1 '_Z6vecAddPdS_S_i'
GPGPU-Sim uArch: Shader 34 bind to kernel 1 '_Z6vecAddPdS_S_i'
GPGPU-Sim uArch: Shader 23 bind to kernel 1 '_Z6vecAddPdS_S_i'
GPGPU-Sim uArch: Shader 26 bind to kernel 1 '_Z6vecAddPdS_S_i'
GPGPU-Sim uArch: Shader 19 bind to kernel 1 '_Z6vecAddPdS_S_i'
GPGPU-Sim uArch: Shader 38 bind to kernel 1 '_Z6vecAddPdS_S_i'
GPGPU-Sim uArch: Shader 18 bind to kernel 1 '_Z6vecAddPdS_S_i'
GPGPU-Sim uArch: Shader 46 bind to kernel 1 '_Z6vecAddPdS_S_i'
GPGPU-Sim uArch: Shader 0 bind to kernel 1 '_Z6vecAddPdS_S_i'
GPGPU-Sim uArch: Shader 31 bind to kernel 1 '_Z6vecAddPdS_S_i'
GPGPU-Sim uArch: Shader 33 bind to kernel 1 '_Z6vecAddPdS_S_i'
GPGPU-Sim uArch: Shader 37 bind to kernel 1 '_Z6vecAddPdS_S_i'
GPGPU-Sim uArch: Shader 39 bind to kernel 1 '_Z6vecAddPdS_S_i'
GPGPU-Sim uArch: Shader 20 bind to kernel 1 '_Z6vecAddPdS_S_i'
GPGPU-Sim uArch: Shader 16 bind to kernel 1 '_Z6vecAddPdS_S_i'
GPGPU-Sim uArch: Shader 29 bind to kernel 1 '_Z6vecAddPdS_S_i'
GPGPU-Sim uArch: Shader 2 bind to kernel 1 '_Z6vecAddPdS_S_i'
GPGPU-Sim uArch: Shader 15 bind to kernel 1 '_Z6vecAddPdS_S_i'
GPGPU-Sim uArch: Shader 11 bind to kernel 1 '_Z6vecAddPdS_S_i'
GPGPU-Sim uArch: Shader 35 bind to kernel 1 '_Z6vecAddPdS_S_i'
GPGPU-Sim uArch: Shader 40 bind to kernel 1 '_Z6vecAddPdS_S_i'
GPGPU-Sim uArch: Shader 44 bind to kernel 1 '_Z6vecAddPdS_S_i'
GPGPU-Sim uArch: Shader 27 bind to kernel 1 '_Z6vecAddPdS_S_i'
GPGPU-Sim uArch: Shader 9 bind to kernel 1 '_Z6vecAddPdS_S_i'
GPGPU-Sim uArch: Shader 36 bind to kernel 1 '_Z6vecAddPdS_S_i'
GPGPU-Sim uArch: Shader 22 bind to kernel 1 '_Z6vecAddPdS_S_i'
GPGPU-Sim uArch: Shader 4 bind to kernel 1 '_Z6vecAddPdS_S_i'
GPGPU-Sim uArch: Shader 13 bind to kernel 1 '_Z6vecAddPdS_S_i'
GPGPU-Sim uArch: Shader 25 bind to kernel 1 '_Z6vecAddPdS_S_i'
GPGPU-Sim uArch: Shader 43 bind to kernel 1 '_Z6vecAddPdS_S_i'
GPGPU-Sim uArch: Shader 42 bind to kernel 1 '_Z6vecAddPdS_S_i'
GPGPU-Sim uArch: Shader 45 bind to kernel 1 '_Z6vecAddPdS_S_i'
GPGPU-Sim uArch: Shader 3 bind to kernel 1 '_Z6vecAddPdS_S_i'
GPGPU-Sim uArch: Shader 21 bind to kernel 1 '_Z6vecAddPdS_S_i'
GPGPU-Sim uArch: Shader 24 bind to kernel 1 '_Z6vecAddPdS_S_i'
GPGPU-Sim uArch: Shader 10 bind to kernel 1 '_Z6vecAddPdS_S_i'
GPGPU-Sim uArch: Shader 1 bind to kernel 1 '_Z6vecAddPdS_S_i'
GPGPU-Sim uArch: Shader 47 bind to kernel 1 '_Z6vecAddPdS_S_i'
GPGPU-Sim uArch: Shader 5 bind to kernel 1 '_Z6vecAddPdS_S_i'
GPGPU-Sim uArch: Shader 17 bind to kernel 1 '_Z6vecAddPdS_S_i'
GPGPU-Sim uArch: Shader 6 bind to kernel 1 '_Z6vecAddPdS_S_i'
GPGPU-Sim uArch: Shader 30 bind to kernel 1 '_Z6vecAddPdS_S_i'
GPGPU-Sim uArch: Shader 7 bind to kernel 1 '_Z6vecAddPdS_S_i'
GPGPU-Sim uArch: Shader 8 bind to kernel 1 '_Z6vecAddPdS_S_i'
GPGPU-Sim uArch: Shader 32 bind to kernel 1 '_Z6vecAddPdS_S_i'
GPGPU-Sim uArch: Shader 41 bind to kernel 1 '_Z6vecAddPdS_S_i'
GPGPU-Sim uArch: Shader 14 bind to kernel 1 '_Z6vecAddPdS_S_i'
GPGPU-Sim uArch: Shader 28 bind to kernel 1 '_Z6vecAddPdS_S_i'
GPGPU-Sim uArch: Shader 34 bind to kernel 1 '_Z6vecAddPdS_S_i'
GPGPU-Sim uArch: Shader 12 bind to kernel 1 '_Z6vecAddPdS_S_i'
GPGPU-Sim uArch: Shader 26 bind to kernel 1 '_Z6vecAddPdS_S_i'
GPGPU-Sim uArch: Shader 19 bind to kernel 1 '_Z6vecAddPdS_S_i'
GPGPU-Sim uArch: Shader 23 bind to kernel 1 '_Z6vecAddPdS_S_i'
GPGPU-Sim uArch: Shader 38 bind to kernel 1 '_Z6vecAddPdS_S_i'
GPGPU-Sim uArch: Shader 18 bind to kernel 1 '_Z6vecAddPdS_S_i'
GPGPU-Sim uArch: Shader 46 bind to kernel 1 '_Z6vecAddPdS_S_i'
GPGPU-Sim uArch: Shader 0 bind to kernel 1 '_Z6vecAddPdS_S_i'
GPGPU-Sim uArch: Shader 33 bind to kernel 1 '_Z6vecAddPdS_S_i'
GPGPU-Sim uArch: Shader 31 bind to kernel 1 '_Z6vecAddPdS_S_i'
GPGPU-Sim uArch: Shader 39 bind to kernel 1 '_Z6vecAddPdS_S_i'
GPGPU-Sim uArch: Shader 16 bind to kernel 1 '_Z6vecAddPdS_S_i'
GPGPU-Sim uArch: Shader 37 bind to kernel 1 '_Z6vecAddPdS_S_i'
GPGPU-Sim uArch: Shader 11 bind to kernel 1 '_Z6vecAddPdS_S_i'
GPGPU-Sim uArch: Shader 15 bind to kernel 1 '_Z6vecAddPdS_S_i'
GPGPU-Sim uArch: Shader 2 bind to kernel 1 '_Z6vecAddPdS_S_i'
GPGPU-Sim uArch: Shader 29 bind to kernel 1 '_Z6vecAddPdS_S_i'
GPGPU-Sim uArch: Shader 44 bind to kernel 1 '_Z6vecAddPdS_S_i'
GPGPU-Sim uArch: Shader 20 bind to kernel 1 '_Z6vecAddPdS_S_i'
GPGPU-Sim uArch: Shader 40 bind to kernel 1 '_Z6vecAddPdS_S_i'
GPGPU-Sim uArch: Shader 35 bind to kernel 1 '_Z6vecAddPdS_S_i'
GPGPU-Sim uArch: Shader 27 bind to kernel 1 '_Z6vecAddPdS_S_i'
GPGPU-Sim uArch: Shader 36 bind to kernel 1 '_Z6vecAddPdS_S_i'
GPGPU-Sim uArch: Shader 4 bind to kernel 1 '_Z6vecAddPdS_S_i'
GPGPU-Sim uArch: Shader 9 bind to kernel 1 '_Z6vecAddPdS_S_i'
GPGPU-Sim uArch: Shader 22 bind to kernel 1 '_Z6vecAddPdS_S_i'
GPGPU-Sim uArch: Shader 13 bind to kernel 1 '_Z6vecAddPdS_S_i'
GPGPU-Sim uArch: Shader 25 bind to kernel 1 '_Z6vecAddPdS_S_i'
GPGPU-Sim uArch: Shader 43 bind to kernel 1 '_Z6vecAddPdS_S_i'
GPGPU-Sim uArch: Shader 42 bind to kernel 1 '_Z6vecAddPdS_S_i'
GPGPU-Sim uArch: Shader 45 bind to kernel 1 '_Z6vecAddPdS_S_i'
GPGPU-Sim uArch: Shader 10 bind to kernel 1 '_Z6vecAddPdS_S_i'
GPGPU-Sim uArch: Shader 3 bind to kernel 1 '_Z6vecAddPdS_S_i'
GPGPU-Sim uArch: Shader 21 bind to kernel 1 '_Z6vecAddPdS_S_i'
GPGPU-Sim uArch: Shader 1 bind to kernel 1 '_Z6vecAddPdS_S_i'
GPGPU-Sim uArch: Shader 8 bind to kernel 1 '_Z6vecAddPdS_S_i'
GPGPU-Sim uArch: Shader 24 bind to kernel 1 '_Z6vecAddPdS_S_i'
GPGPU-Sim uArch: Shader 47 bind to kernel 1 '_Z6vecAddPdS_S_i'
GPGPU-Sim uArch: Shader 30 bind to kernel 1 '_Z6vecAddPdS_S_i'
GPGPU-Sim uArch: Shader 5 bind to kernel 1 '_Z6vecAddPdS_S_i'
GPGPU-Sim uArch: Shader 28 bind to kernel 1 '_Z6vecAddPdS_S_i'
GPGPU-Sim uArch: Shader 17 bind to kernel 1 '_Z6vecAddPdS_S_i'
GPGPU-Sim uArch: Shader 7 bind to kernel 1 '_Z6vecAddPdS_S_i'
GPGPU-Sim uArch: Shader 6 bind to kernel 1 '_Z6vecAddPdS_S_i'
GPGPU-Sim uArch: Shader 14 bind to kernel 1 '_Z6vecAddPdS_S_i'
GPGPU-Sim uArch: Shader 32 bind to kernel 1 '_Z6vecAddPdS_S_i'
GPGPU-Sim uArch: Shader 41 bind to kernel 1 '_Z6vecAddPdS_S_i'
GPGPU-Sim uArch: Shader 26 bind to kernel 1 '_Z6vecAddPdS_S_i'
GPGPU-Sim uArch: Shader 12 bind to kernel 1 '_Z6vecAddPdS_S_i'
GPGPU-Sim uArch: Shader 34 bind to kernel 1 '_Z6vecAddPdS_S_i'
GPGPU-Sim uArch: Shader 19 bind to kernel 1 '_Z6vecAddPdS_S_i'
GPGPU-Sim uArch: Shader 38 bind to kernel 1 '_Z6vecAddPdS_S_i'
GPGPU-Sim uArch: Shader 23 bind to kernel 1 '_Z6vecAddPdS_S_i'
GPGPU-Sim uArch: Shader 18 bind to kernel 1 '_Z6vecAddPdS_S_i'
GPGPU-Sim uArch: Shader 0 bind to kernel 1 '_Z6vecAddPdS_S_i'
GPGPU-Sim uArch: Shader 31 bind to kernel 1 '_Z6vecAddPdS_S_i'
GPGPU-Sim uArch: Shader 46 bind to kernel 1 '_Z6vecAddPdS_S_i'
GPGPU-Sim uArch: Shader 33 bind to kernel 1 '_Z6vecAddPdS_S_i'
GPGPU-Sim uArch: Shader 29 bind to kernel 1 '_Z6vecAddPdS_S_i'
GPGPU-Sim uArch: Shader 39 bind to kernel 1 '_Z6vecAddPdS_S_i'
GPGPU-Sim uArch: Shader 2 bind to kernel 1 '_Z6vecAddPdS_S_i'
GPGPU-Sim uArch: Shader 35 bind to kernel 1 '_Z6vecAddPdS_S_i'
GPGPU-Sim uArch: Shader 37 bind to kernel 1 '_Z6vecAddPdS_S_i'
GPGPU-Sim uArch: Shader 27 bind to kernel 1 '_Z6vecAddPdS_S_i'
GPGPU-Sim uArch: Shader 44 bind to kernel 1 '_Z6vecAddPdS_S_i'
GPGPU-Sim uArch: Shader 11 bind to kernel 1 '_Z6vecAddPdS_S_i'
GPGPU-Sim uArch: Shader 16 bind to kernel 1 '_Z6vecAddPdS_S_i'
GPGPU-Sim uArch: Shader 15 bind to kernel 1 '_Z6vecAddPdS_S_i'
GPGPU-Sim uArch: Shader 20 bind to kernel 1 '_Z6vecAddPdS_S_i'
GPGPU-Sim uArch: Shader 40 bind to kernel 1 '_Z6vecAddPdS_S_i'
GPGPU-Sim uArch: Shader 36 bind to kernel 1 '_Z6vecAddPdS_S_i'
GPGPU-Sim uArch: Shader 4 bind to kernel 1 '_Z6vecAddPdS_S_i'
GPGPU-Sim uArch: Shader 22 bind to kernel 1 '_Z6vecAddPdS_S_i'
GPGPU-Sim uArch: Shader 9 bind to kernel 1 '_Z6vecAddPdS_S_i'
GPGPU-Sim uArch: Shader 13 bind to kernel 1 '_Z6vecAddPdS_S_i'
GPGPU-Sim uArch: Shader 42 bind to kernel 1 '_Z6vecAddPdS_S_i'
GPGPU-Sim uArch: Shader 43 bind to kernel 1 '_Z6vecAddPdS_S_i'
GPGPU-Sim uArch: Shader 25 bind to kernel 1 '_Z6vecAddPdS_S_i'
GPGPU-Sim uArch: Shader 45 bind to kernel 1 '_Z6vecAddPdS_S_i'
GPGPU-Sim uArch: Shader 10 bind to kernel 1 '_Z6vecAddPdS_S_i'
GPGPU-Sim uArch: Shader 30 bind to kernel 1 '_Z6vecAddPdS_S_i'
GPGPU-Sim uArch: Shader 3 bind to kernel 1 '_Z6vecAddPdS_S_i'
GPGPU-Sim uArch: Shader 5 bind to kernel 1 '_Z6vecAddPdS_S_i'
GPGPU-Sim uArch: Shader 8 bind to kernel 1 '_Z6vecAddPdS_S_i'
GPGPU-Sim uArch: Shader 21 bind to kernel 1 '_Z6vecAddPdS_S_i'
GPGPU-Sim uArch: Shader 17 bind to kernel 1 '_Z6vecAddPdS_S_i'
GPGPU-Sim uArch: Shader 7 bind to kernel 1 '_Z6vecAddPdS_S_i'
GPGPU-Sim uArch: Shader 28 bind to kernel 1 '_Z6vecAddPdS_S_i'
GPGPU-Sim uArch: Shader 47 bind to kernel 1 '_Z6vecAddPdS_S_i'
GPGPU-Sim uArch: Shader 24 bind to kernel 1 '_Z6vecAddPdS_S_i'
GPGPU-Sim uArch: Shader 32 bind to kernel 1 '_Z6vecAddPdS_S_i'
GPGPU-Sim uArch: Shader 26 bind to kernel 1 '_Z6vecAddPdS_S_i'
GPGPU-Sim uArch: Shader 6 bind to kernel 1 '_Z6vecAddPdS_S_i'
GPGPU-Sim uArch: Shader 41 bind to kernel 1 '_Z6vecAddPdS_S_i'
GPGPU-Sim uArch: Shader 14 bind to kernel 1 '_Z6vecAddPdS_S_i'
GPGPU-Sim uArch: Shader 12 bind to kernel 1 '_Z6vecAddPdS_S_i'
[...]
Ready @ 56227 -   mf: uid=1743848, sid4294967295:w4294967295, part=11, addr=0xc158b480, store, size=128, L2_WRBK  status = IN_PARTITION_DRAM_LATENCY_QUEUE (55973), 
DRAM[11]: 16 bks, busW=2 BL=16 CL=24, tRRD=12 tCCD=4, tRCD=24 tRAS=55 tRP=24 tRC=78
n_cmd=267643 n_nop=217561 n_act=3383 n_pre=3367 n_ref_event=0 n_req=34403 n_rd=31248 n_rd_L2_A=0 n_write=0 n_wr_bk=12620 bw_util=0.6556
n_activity=217211 dram_eff=0.8078
bk0: 1984a 186477i bk1: 1984a 185151i bk2: 1984a 182705i bk3: 1984a 180350i bk4: 1984a 184414i bk5: 1984a 183238i bk6: 1984a 181102i bk7: 1984a 177927i bk8: 1928a 185554i bk9: 1928a 183837i bk10: 1920a 181135i bk11: 1920a 179178i bk12: 1920a 182773i bk13: 1920a 182265i bk14: 1920a 182296i bk15: 1920a 177600i 

------------------------------------------------------------------------

Row_Buffer_Locality = 0.901666
Row_Buffer_Locality_read = 0.910202
Row_Buffer_Locality_write = 0.817116
Bank_Level_Parallism = 7.012632
Bank_Level_Parallism_Col = 6.485869
Bank_Level_Parallism_Ready = 2.773789
write_to_read_ratio_blp_rw_average = 0.346778
GrpLevelPara = 3.303900 

BW Util details:
bwutil = 0.655620 
total_CMD = 267643 
util_bw = 175472 
Wasted_Col = 27040 
Wasted_Row = 2575 
Idle = 62556 

BW Util Bottlenecks: 
RCDc_limit = 12701 
RCDWRc_limit = 1995 
WTRc_limit = 44535 
RTWc_limit = 48616 
CCDLc_limit = 12935 
rwq = 0 
CCDLc_limit_alone = 6315 
WTRc_limit_alone = 41515 
RTWc_limit_alone = 45016 

Commands details: 
total_CMD = 267643 
n_nop = 217561 
Read = 31248 
Write = 0 
L2_Alloc = 0 
L2_WB = 12620 
n_act = 3383 
n_pre = 3367 
n_ref = 0 
n_req = 34403 
total_req = 43868 

Dual Bus Interface Util: 
issued_total_row = 6750 
issued_total_col = 43868 
Row_Bus_Util =  0.025220 
CoL_Bus_Util = 0.163905 
Either_Row_CoL_Bus_Util = 0.187122 
Issued_on_Two_Bus_Simul_Util = 0.002003 
issued_two_Eff = 0.010702 
queue_avg = 14.074640 


dram_util_bins: 0 0 0 0 0 0 0 0 0 0
dram_eff_bins: 0 0 0 0 0 0 0 0 0 0
mrqq: max=64 avg=14.0746
Memory Partition 12: 
Cache L2_bank_024:
MSHR contents

Cache L2_bank_025:
MSHR contents

In Dram Latency Queue (total = 0): 
DRAM[12]: 16 bks, busW=2 BL=16 CL=24, tRRD=12 tCCD=4, tRCD=24 tRAS=55 tRP=24 tRC=78
n_cmd=267643 n_nop=217779 n_act=3236 n_pre=3220 n_ref_event=0 n_req=34406 n_rd=31248 n_rd_L2_A=0 n_write=0 n_wr_bk=12632 bw_util=0.6558
n_activity=216198 dram_eff=0.8118
bk0: 1984a 185688i bk1: 1984a 183826i bk2: 1984a 181527i bk3: 1984a 178686i bk4: 1984a 187425i bk5: 1984a 183486i bk6: 1984a 175834i bk7: 1984a 177369i bk8: 1928a 186535i bk9: 1928a 184868i bk10: 1920a 182699i bk11: 1920a 181152i bk12: 1920a 186260i bk13: 1920a 184539i bk14: 1920a 181565i bk15: 1920a 177023i 

------------------------------------------------------------------------

Row_Buffer_Locality = 0.905947
Row_Buffer_Locality_read = 0.914779
Row_Buffer_Locality_write = 0.818556
Bank_Level_Parallism = 7.043784
Bank_Level_Parallism_Col = 6.553673
Bank_Level_Parallism_Ready = 2.776609
write_to_read_ratio_blp_rw_average = 0.346668
GrpLevelPara = 3.327320 

BW Util details:
bwutil = 0.655799 
total_CMD = 267643 
util_bw = 175520 
Wasted_Col = 25723 
Wasted_Row = 2724 
Idle = 63676 

BW Util Bottlenecks: 
RCDc_limit = 11320 
RCDWRc_limit = 2062 
WTRc_limit = 43564 
RTWc_limit = 45986 
CCDLc_limit = 12427 
rwq = 0 
CCDLc_limit_alone = 6038 
WTRc_limit_alone = 40556 
RTWc_limit_alone = 42605 

Commands details: 
total_CMD = 267643 
n_nop = 217779 
Read = 31248 
Write = 0 
L2_Alloc = 0 
L2_WB = 12632 
n_act = 3236 
n_pre = 3220 
n_ref = 0 
n_req = 34406 
total_req = 43880 

Dual Bus Interface Util: 
issued_total_row = 6456 
issued_total_col = 43880 
Row_Bus_Util =  0.024122 
CoL_Bus_Util = 0.163950 
Either_Row_CoL_Bus_Util = 0.186308 
Issued_on_Two_Bus_Simul_Util = 0.001764 
issued_two_Eff = 0.009466 
queue_avg = 14.053474 


dram_util_bins: 0 0 0 0 0 0 0 0 0 0
dram_eff_bins: 0 0 0 0 0 0 0 0 0 0
mrqq: max=64 avg=14.0535
Memory Partition 13: 
Cache L2_bank_026:
MSHR contents

Cache L2_bank_027:
MSHR contents

In Dram Latency Queue (total = 0): 
DRAM[13]: 16 bks, busW=2 BL=16 CL=24, tRRD=12 tCCD=4, tRCD=24 tRAS=55 tRP=24 tRC=78
n_cmd=267643 n_nop=217591 n_act=3341 n_pre=3325 n_ref_event=0 n_req=34414 n_rd=31248 n_rd_L2_A=0 n_write=0 n_wr_bk=12664 bw_util=0.6563
n_activity=216088 dram_eff=0.8129
bk0: 1984a 189562i bk1: 1984a 186592i bk2: 1984a 180954i bk3: 1984a 178525i bk4: 1984a 181420i bk5: 1984a 179686i bk6: 1984a 177659i bk7: 1984a 174989i bk8: 1928a 184334i bk9: 1928a 183092i bk10: 1920a 185219i bk11: 1920a 183786i bk12: 1920a 184401i bk13: 1920a 181324i bk14: 1920a 179452i bk15: 1920a 177447i 

------------------------------------------------------------------------

Row_Buffer_Locality = 0.902917
Row_Buffer_Locality_read = 0.911898
Row_Buffer_Locality_write = 0.814277
Bank_Level_Parallism = 7.096660
Bank_Level_Parallism_Col = 6.571555
Bank_Level_Parallism_Ready = 2.802846
write_to_read_ratio_blp_rw_average = 0.343995
GrpLevelPara = 3.330177 

BW Util details:
bwutil = 0.656277 
total_CMD = 267643 
util_bw = 175648 
Wasted_Col = 25956 
Wasted_Row = 2367 
Idle = 63672 

BW Util Bottlenecks: 
RCDc_limit = 11765 
RCDWRc_limit = 1983 
WTRc_limit = 44900 
RTWc_limit = 43726 
CCDLc_limit = 12534 
rwq = 0 
CCDLc_limit_alone = 6156 
WTRc_limit_alone = 41729 
RTWc_limit_alone = 40519 

Commands details: 
total_CMD = 267643 
n_nop = 217591 
Read = 31248 
Write = 0 
L2_Alloc = 0 
L2_WB = 12664 
n_act = 3341 
n_pre = 3325 
n_ref = 0 
n_req = 34414 
total_req = 43912 

Dual Bus Interface Util: 
issued_total_row = 6666 
issued_total_col = 43912 
Row_Bus_Util =  0.024906 
CoL_Bus_Util = 0.164069 
Either_Row_CoL_Bus_Util = 0.187010 
Issued_on_Two_Bus_Simul_Util = 0.001965 
issued_two_Eff = 0.010509 
queue_avg = 14.949925 


dram_util_bins: 0 0 0 0 0 0 0 0 0 0
dram_eff_bins: 0 0 0 0 0 0 0 0 0 0
mrqq: max=64 avg=14.9499
Memory Partition 14: 
Cache L2_bank_028:
MSHR contents

Cache L2_bank_029:
MSHR contents

In Dram Latency Queue (total = 4): 
Ready @ 56207 -   mf: uid=1743831, sid4294967295:w4294967295, part=14, addr=0xc1589300, store, size=128, L2_WRBK  status = IN_PARTITION_DRAM_LATENCY_QUEUE (55953), 
Ready @ 56211 -   mf: uid=1743840, sid4294967295:w4294967295, part=14, addr=0xc1589380, store, size=128, L2_WRBK  status = IN_PARTITION_DRAM_LATENCY_QUEUE (55957), 
Ready @ 56333 -   mf: uid=1743865, sid4294967295:w4294967295, part=14, addr=0xc158a100, store, size=128, L2_WRBK  status = IN_PARTITION_DRAM_LATENCY_QUEUE (56079), 
Ready @ 56337 -   mf: uid=1743867, sid4294967295:w4294967295, part=14, addr=0xc158a180, store, size=128, L2_WRBK  status = IN_PARTITION_DRAM_LATENCY_QUEUE (56083), 
DRAM[14]: 16 bks, busW=2 BL=16 CL=24, tRRD=12 tCCD=4, tRCD=24 tRAS=55 tRP=24 tRC=78
n_cmd=267643 n_nop=217773 n_act=3242 n_pre=3226 n_ref_event=0 n_req=34414 n_rd=31248 n_rd_L2_A=0 n_write=0 n_wr_bk=12664 bw_util=0.6563
n_activity=217107 dram_eff=0.809
bk0: 1984a 187929i bk1: 1984a 183885i bk2: 1984a 187765i bk3: 1984a 186109i bk4: 1984a 182771i bk5: 1984a 180449i bk6: 1984a 181858i bk7: 1984a 178678i bk8: 1928a 182020i bk9: 1928a 179994i bk10: 1920a 180532i bk11: 1920a 179795i bk12: 1920a 185103i bk13: 1920a 182209i bk14: 1920a 177206i bk15: 1920a 175160i 

------------------------------------------------------------------------

Row_Buffer_Locality = 0.905794
Row_Buffer_Locality_read = 0.913915
Row_Buffer_Locality_write = 0.825648
Bank_Level_Parallism = 7.040025
Bank_Level_Parallism_Col = 6.552638
Bank_Level_Parallism_Ready = 2.803043
write_to_read_ratio_blp_rw_average = 0.352330
GrpLevelPara = 3.310714 

BW Util details:
bwutil = 0.656277 
total_CMD = 267643 
util_bw = 175648 
Wasted_Col = 26624 
Wasted_Row = 2691 
Idle = 62680 

BW Util Bottlenecks: 
RCDc_limit = 11884 
RCDWRc_limit = 1990 
WTRc_limit = 43262 
RTWc_limit = 47703 
CCDLc_limit = 12771 
rwq = 0 
CCDLc_limit_alone = 6123 
WTRc_limit_alone = 40256 
RTWc_limit_alone = 44061 

Commands details: 
total_CMD = 267643 
n_nop = 217773 
Read = 31248 
Write = 0 
L2_Alloc = 0 
L2_WB = 12664 
n_act = 3242 
n_pre = 3226 
n_ref = 0 
n_req = 34414 
total_req = 43912 

Dual Bus Interface Util: 
issued_total_row = 6468 
issued_total_col = 43912 
Row_Bus_Util =  0.024167 
CoL_Bus_Util = 0.164069 
Either_Row_CoL_Bus_Util = 0.186330 
Issued_on_Two_Bus_Simul_Util = 0.001906 
issued_two_Eff = 0.010227 
queue_avg = 14.579413 


dram_util_bins: 0 0 0 0 0 0 0 0 0 0
dram_eff_bins: 0 0 0 0 0 0 0 0 0 0
mrqq: max=64 avg=14.5794
Memory Partition 15: 
Cache L2_bank_030:
MSHR contents

Cache L2_bank_031:
MSHR contents

In Dram Latency Queue (total = 2): 
Ready @ 56351 -   mf: uid=1743869, sid4294967295:w4294967295, part=15, addr=0xc158a000, store, size=128, L2_WRBK  status = IN_PARTITION_DRAM_LATENCY_QUEUE (56097), 
Ready @ 56355 -   mf: uid=1743870, sid4294967295:w4294967295, part=15, addr=0xc158a080, store, size=128, L2_WRBK  status = IN_PARTITION_DRAM_LATENCY_QUEUE (56101), 
DRAM[15]: 16 bks, busW=2 BL=16 CL=24, tRRD=12 tCCD=4, tRCD=24 tRAS=55 tRP=24 tRC=78
n_cmd=267643 n_nop=217811 n_act=3222 n_pre=3208 n_ref_event=0 n_req=34410 n_rd=31248 n_rd_L2_A=0 n_write=0 n_wr_bk=12640 bw_util=0.6559
n_activity=216733 dram_eff=0.81
bk0: 1984a 187010i bk1: 1984a 183777i bk2: 1984a 181281i bk3: 1984a 177210i bk4: 1984a 182898i bk5: 1984a 180814i bk6: 1984a 180545i bk7: 1984a 179469i bk8: 1928a 185048i bk9: 1928a 185129i bk10: 1920a 179758i bk11: 1920a 176973i bk12: 1920a 189404i bk13: 1920a 187418i bk14: 1920a 178569i bk15: 1920a 175503i 

------------------------------------------------------------------------

Row_Buffer_Locality = 0.906306
Row_Buffer_Locality_read = 0.914074
Row_Buffer_Locality_write = 0.829538
Bank_Level_Parallism = 7.030383
Bank_Level_Parallism_Col = 6.540927
Bank_Level_Parallism_Ready = 2.745399
write_to_read_ratio_blp_rw_average = 0.363318
GrpLevelPara = 3.342171 

BW Util details:
bwutil = 0.655919 
total_CMD = 267643 
util_bw = 175552 
Wasted_Col = 26986 
Wasted_Row = 2546 
Idle = 62559 

BW Util Bottlenecks: 
RCDc_limit = 12084 
RCDWRc_limit = 1758 
WTRc_limit = 43095 
RTWc_limit = 49314 
CCDLc_limit = 12385 
rwq = 0 
CCDLc_limit_alone = 6065 
WTRc_limit_alone = 40485 
RTWc_limit_alone = 45604 

Commands details: 
total_CMD = 267643 
n_nop = 217811 
Read = 31248 
Write = 0 
L2_Alloc = 0 
L2_WB = 12640 
n_act = 3222 
n_pre = 3208 
n_ref = 0 
n_req = 34410 
total_req = 43888 

Dual Bus Interface Util: 
issued_total_row = 6430 
issued_total_col = 43888 
Row_Bus_Util =  0.024025 
CoL_Bus_Util = 0.163980 
Either_Row_CoL_Bus_Util = 0.186188 
Issued_on_Two_Bus_Simul_Util = 0.001816 
issued_two_Eff = 0.009753 
queue_avg = 14.649570 


dram_util_bins: 0 0 0 0 0 0 0 0 0 0
dram_eff_bins: 0 0 0 0 0 0 0 0 0 0
mrqq: max=64 avg=14.6496

========= L2 cache stats =========
L2_cache_bank[0]: Access = 23436, Miss = 23436, Miss_rate = 1.000, Pending_hits = 0, Reservation_fails = 661
L2_cache_bank[1]: Access = 23436, Miss = 23436, Miss_rate = 1.000, Pending_hits = 0, Reservation_fails = 701
L2_cache_bank[2]: Access = 23436, Miss = 23436, Miss_rate = 1.000, Pending_hits = 0, Reservation_fails = 1
L2_cache_bank[3]: Access = 23436, Miss = 23436, Miss_rate = 1.000, Pending_hits = 0, Reservation_fails = 1210
L2_cache_bank[4]: Access = 23436, Miss = 23436, Miss_rate = 1.000, Pending_hits = 0, Reservation_fails = 699
L2_cache_bank[5]: Access = 23436, Miss = 23436, Miss_rate = 1.000, Pending_hits = 0, Reservation_fails = 693
L2_cache_bank[6]: Access = 23436, Miss = 23436, Miss_rate = 1.000, Pending_hits = 0, Reservation_fails = 1086
L2_cache_bank[7]: Access = 23436, Miss = 23436, Miss_rate = 1.000, Pending_hits = 0, Reservation_fails = 675
L2_cache_bank[8]: Access = 23436, Miss = 23436, Miss_rate = 1.000, Pending_hits = 0, Reservation_fails = 559
L2_cache_bank[9]: Access = 23436, Miss = 23436, Miss_rate = 1.000, Pending_hits = 0, Reservation_fails = 912
L2_cache_bank[10]: Access = 23436, Miss = 23436, Miss_rate = 1.000, Pending_hits = 0, Reservation_fails = 959
L2_cache_bank[11]: Access = 23436, Miss = 23436, Miss_rate = 1.000, Pending_hits = 0, Reservation_fails = 494
L2_cache_bank[12]: Access = 23436, Miss = 23436, Miss_rate = 1.000, Pending_hits = 0, Reservation_fails = 1186
L2_cache_bank[13]: Access = 23436, Miss = 23436, Miss_rate = 1.000, Pending_hits = 0, Reservation_fails = 163
L2_cache_bank[14]: Access = 23436, Miss = 23436, Miss_rate = 1.000, Pending_hits = 0, Reservation_fails = 875
L2_cache_bank[15]: Access = 23436, Miss = 23436, Miss_rate = 1.000, Pending_hits = 0, Reservation_fails = 1015
L2_cache_bank[16]: Access = 23440, Miss = 23440, Miss_rate = 1.000, Pending_hits = 0, Reservation_fails = 1557
L2_cache_bank[17]: Access = 23440, Miss = 23440, Miss_rate = 1.000, Pending_hits = 0, Reservation_fails = 227
L2_cache_bank[18]: Access = 23440, Miss = 23440, Miss_rate = 1.000, Pending_hits = 0, Reservation_fails = 680
L2_cache_bank[19]: Access = 23440, Miss = 23440, Miss_rate = 1.000, Pending_hits = 0, Reservation_fails = 1356
L2_cache_bank[20]: Access = 23440, Miss = 23440, Miss_rate = 1.000, Pending_hits = 0, Reservation_fails = 224
L2_cache_bank[21]: Access = 23440, Miss = 23440, Miss_rate = 1.000, Pending_hits = 0, Reservation_fails = 1322
L2_cache_bank[22]: Access = 23440, Miss = 23440, Miss_rate = 1.000, Pending_hits = 0, Reservation_fails = 665
L2_cache_bank[23]: Access = 23440, Miss = 23440, Miss_rate = 1.000, Pending_hits = 0, Reservation_fails = 876
L2_cache_bank[24]: Access = 23440, Miss = 23440, Miss_rate = 1.000, Pending_hits = 0, Reservation_fails = 1255
L2_cache_bank[25]: Access = 23440, Miss = 23440, Miss_rate = 1.000, Pending_hits = 0, Reservation_fails = 566
L2_cache_bank[26]: Access = 23440, Miss = 23440, Miss_rate = 1.000, Pending_hits = 0, Reservation_fails = 1015
L2_cache_bank[27]: Access = 23440, Miss = 23440, Miss_rate = 1.000, Pending_hits = 0, Reservation_fails = 875
L2_cache_bank[28]: Access = 23436, Miss = 23436, Miss_rate = 1.000, Pending_hits = 0, Reservation_fails = 33
L2_cache_bank[29]: Access = 23436, Miss = 23436, Miss_rate = 1.000, Pending_hits = 0, Reservation_fails = 1437
L2_cache_bank[30]: Access = 23436, Miss = 23436, Miss_rate = 1.000, Pending_hits = 0, Reservation_fails = 451
L2_cache_bank[31]: Access = 23436, Miss = 23436, Miss_rate = 1.000, Pending_hits = 0, Reservation_fails = 1437
L2_total_cache_accesses = 750000
L2_total_cache_misses = 750000
L2_total_cache_miss_rate = 1.0000
L2_total_cache_pending_hits = 0
L2_total_cache_reservation_fails = 25865
L2_total_cache_breakdown:
	L2_cache_stats_breakdown[GLOBAL_ACC_R][HIT] = 0
	L2_cache_stats_breakdown[GLOBAL_ACC_R][HIT_RESERVED] = 0
	L2_cache_stats_breakdown[GLOBAL_ACC_R][MISS] = 125000
	L2_cache_stats_breakdown[GLOBAL_ACC_R][RESERVATION_FAIL] = 25865
	L2_cache_stats_breakdown[GLOBAL_ACC_R][SECTOR_MISS] = 375000
	L2_cache_stats_breakdown[GLOBAL_ACC_R][MSHR_HIT] = 0
	L2_cache_stats_breakdown[LOCAL_ACC_R][HIT] = 0
	L2_cache_stats_breakdown[LOCAL_ACC_R][HIT_RESERVED] = 0
	L2_cache_stats_breakdown[LOCAL_ACC_R][MISS] = 0
	L2_cache_stats_breakdown[LOCAL_ACC_R][RESERVATION_FAIL] = 0
	L2_cache_stats_breakdown[LOCAL_ACC_R][SECTOR_MISS] = 0
	L2_cache_stats_breakdown[LOCAL_ACC_R][MSHR_HIT] = 0
	L2_cache_stats_breakdown[CONST_ACC_R][HIT] = 0
	L2_cache_stats_breakdown[CONST_ACC_R][HIT_RESERVED] = 0
	L2_cache_stats_breakdown[CONST_ACC_R][MISS] = 0
	L2_cache_stats_breakdown[CONST_ACC_R][RESERVATION_FAIL] = 0
	L2_cache_stats_breakdown[CONST_ACC_R][SECTOR_MISS] = 0
	L2_cache_stats_breakdown[CONST_ACC_R][MSHR_HIT] = 0
	L2_cache_stats_breakdown[TEXTURE_ACC_R][HIT] = 0
	L2_cache_stats_breakdown[TEXTURE_ACC_R][HIT_RESERVED] = 0
	L2_cache_stats_breakdown[TEXTURE_ACC_R][MISS] = 0
	L2_cache_stats_breakdown[TEXTURE_ACC_R][RESERVATION_FAIL] = 0
	L2_cache_stats_breakdown[TEXTURE_ACC_R][SECTOR_MISS] = 0
	L2_cache_stats_breakdown[TEXTURE_ACC_R][MSHR_HIT] = 0
	L2_cache_stats_breakdown[GLOBAL_ACC_W][HIT] = 0
	L2_cache_stats_breakdown[GLOBAL_ACC_W][HIT_RESERVED] = 0
	L2_cache_stats_breakdown[GLOBAL_ACC_W][MISS] = 62500
	L2_cache_stats_breakdown[GLOBAL_ACC_W][RESERVATION_FAIL] = 0
	L2_cache_stats_breakdown[GLOBAL_ACC_W][SECTOR_MISS] = 187500
	L2_cache_stats_breakdown[GLOBAL_ACC_W][MSHR_HIT] = 0
	L2_cache_stats_breakdown[LOCAL_ACC_W][HIT] = 0
	L2_cache_stats_breakdown[LOCAL_ACC_W][HIT_RESERVED] = 0
	L2_cache_stats_breakdown[LOCAL_ACC_W][MISS] = 0
	L2_cache_stats_breakdown[LOCAL_ACC_W][RESERVATION_FAIL] = 0
	L2_cache_stats_breakdown[LOCAL_ACC_W][SECTOR_MISS] = 0
	L2_cache_stats_breakdown[LOCAL_ACC_W][MSHR_HIT] = 0
	L2_cache_stats_breakdown[L1_WRBK_ACC][HIT] = 0
	L2_cache_stats_breakdown[L1_WRBK_ACC][HIT_RESERVED] = 0
	L2_cache_stats_breakdown[L1_WRBK_ACC][MISS] = 0
	L2_cache_stats_breakdown[L1_WRBK_ACC][RESERVATION_FAIL] = 0
	L2_cache_stats_breakdown[L1_WRBK_ACC][SECTOR_MISS] = 0
	L2_cache_stats_breakdown[L1_WRBK_ACC][MSHR_HIT] = 0
	L2_cache_stats_breakdown[L2_WRBK_ACC][HIT] = 0
	L2_cache_stats_breakdown[L2_WRBK_ACC][HIT_RESERVED] = 0
	L2_cache_stats_breakdown[L2_WRBK_ACC][MISS] = 0
	L2_cache_stats_breakdown[L2_WRBK_ACC][RESERVATION_FAIL] = 0
	L2_cache_stats_breakdown[L2_WRBK_ACC][SECTOR_MISS] = 0
	L2_cache_stats_breakdown[L2_WRBK_ACC][MSHR_HIT] = 0
	L2_cache_stats_breakdown[INST_ACC_R][HIT] = 0
	L2_cache_stats_breakdown[INST_ACC_R][HIT_RESERVED] = 0
	L2_cache_stats_breakdown[INST_ACC_R][MISS] = 0
	L2_cache_stats_breakdown[INST_ACC_R][RESERVATION_FAIL] = 0
	L2_cache_stats_breakdown[INST_ACC_R][SECTOR_MISS] = 0
	L2_cache_stats_breakdown[INST_ACC_R][MSHR_HIT] = 0
	L2_cache_stats_breakdown[L1_WR_ALLOC_R][HIT] = 0
	L2_cache_stats_breakdown[L1_WR_ALLOC_R][HIT_RESERVED] = 0
	L2_cache_stats_breakdown[L1_WR_ALLOC_R][MISS] = 0
	L2_cache_stats_breakdown[L1_WR_ALLOC_R][RESERVATION_FAIL] = 0
	L2_cache_stats_breakdown[L1_WR_ALLOC_R][SECTOR_MISS] = 0
	L2_cache_stats_breakdown[L1_WR_ALLOC_R][MSHR_HIT] = 0
	L2_cache_stats_breakdown[L2_WR_ALLOC_R][HIT] = 0
	L2_cache_stats_breakdown[L2_WR_ALLOC_R][HIT_RESERVED] = 0
	L2_cache_stats_breakdown[L2_WR_ALLOC_R][MISS] = 0
	L2_cache_stats_breakdown[L2_WR_ALLOC_R][RESERVATION_FAIL] = 0
	L2_cache_stats_breakdown[L2_WR_ALLOC_R][SECTOR_MISS] = 0
	L2_cache_stats_breakdown[L2_WR_ALLOC_R][MSHR_HIT] = 0
	L2_cache_stats_breakdown[GLOBAL_ACC_R][TOTAL_ACCESS] = 500000
	L2_cache_stats_breakdown[GLOBAL_ACC_W][TOTAL_ACCESS] = 250000
L2_total_cache_reservation_fail_breakdown:
	L2_cache_stats_fail_breakdown[GLOBAL_ACC_R][MSHR_ENRTY_FAIL] = 25865
L2_cache_data_port_util = 0.033
L2_cache_fill_port_util = 0.278

icnt_total_pkts_mem_to_simt=750000
icnt_total_pkts_simt_to_mem=750000
LD_mem_lat_dist  0 0 0 0 0 0 0 0 0 0 0 0 0 0 0 0 0 0 0 0 0 0 0 0 0 0 0
ST_mem_lat_dist  0 0 0 0 0 0 0 0 0 0 0 0 0 0 0 0 0 0 0 0 0 0 0 0 0 0 0
----------------------------Interconnect-DETAILS--------------------------------
Req_Network_injected_packets_num = 750000
Req_Network_cycles = 56206
Req_Network_injected_packets_per_cycle =      13.3438 
Req_Network_conflicts_per_cycle =       6.6266
Req_Network_conflicts_per_cycle_util =       7.3783
Req_Bank_Level_Parallism =      14.8574
Req_Network_in_buffer_full_per_cycle =       0.0000
Req_Network_in_buffer_avg_util =       6.6521
Req_Network_out_buffer_full_per_cycle =       0.0000
Req_Network_out_buffer_avg_util =       6.5122

Reply_Network_injected_packets_num = 750000
Reply_Network_cycles = 56206
Reply_Network_injected_packets_per_cycle =       13.3438
Reply_Network_conflicts_per_cycle =       14.8887
Reply_Network_conflicts_per_cycle_util =      16.7780
Reply_Bank_Level_Parallism =      15.0370
Reply_Network_in_buffer_full_per_cycle =       0.0000
Reply_Network_in_buffer_avg_util =      47.9469
Reply_Network_out_buffer_full_per_cycle =       0.0000
Reply_Network_out_buffer_avg_util =       0.2780
----------------------------END-of-Interconnect-DETAILS-------------------------


gpgpu_simulation_time = 0 days, 0 hrs, 2 min, 25 sec (145 sec)
gpgpu_simulation_rate = 144861 (inst/sec)
gpgpu_simulation_rate = 387 (cycle/sec)
gpgpu_silicon_slowdown = 1899224x
Final sum = 1000000.000000; sum/n = 1.000000 (should be ~1)
GPGPU-Sim: *** exit detected ***
