GPGPU-Sim version 4.2.0 (build gpgpu-sim_git-commit-13c67115070dc2f0876254a790d0238073ca364a-modified_590.0) configured with AccelWattch.

----------------------------------------------------------------------------
INFO - If you only care about PTX execution, ignore this message. GPGPU-Sim supports PTX execution in modern CUDA.
If you want to run PTXPLUS (sm_1x SASS) with a modern card configuration - set the envronment variable
$PTXAS_CUDA_INSTALL_PATH to point a CUDA version compabible with your card configurations (i.e. 8+ for PASCAL, 9+ for VOLTA etc..)
For example: "export $PTXAS_CUDA_INSTALL_PATH=/usr/local/cuda-9.1"

The following text describes why:
If you are using PTXPLUS, only sm_1x is supported and it requires that the app and simulator binaries are compiled in CUDA 4.2 or less.
The simulator requires it since CUDA headers desribe struct sizes in the exec which change from gen to gen.
The apps require 4.2 because new versions of CUDA tools have dropped parsing support for generating sm_1x
When running using modern config (i.e. volta) and PTXPLUS with CUDA 4.2, the $PTXAS_CUDA_INSTALL_PATH env variable is required to get proper register usage
(and hence occupancy) using a version of CUDA that knows the register usage on the real card.

----------------------------------------------------------------------------
setup_environment succeeded
Accel-Sim [build accelsim-commit-e02c99dbadefc0b9dc95317100be2a446eec142c_modified_0.0]

        *** GPGPU-Sim Simulator Version 4.2.0  [build gpgpu-sim_git-commit-13c67115070dc2f0876254a790d0238073ca364a_modified_0.0] ***


GPGPU-Sim: Configuration options:

-save_embedded_ptx                      0 # saves ptx files embedded in binary as <n>.ptx
-keep                                   0 # keep intermediate files created by GPGPU-Sim when interfacing with external programs
-gpgpu_ptx_save_converted_ptxplus                    0 # Saved converted ptxplus to a file
-gpgpu_occupancy_sm_number                   60 # The SM number to pass to ptxas when getting register usage for computing GPU occupancy. This parameter is required in the config.
-ptx_opcode_latency_int         4,13,4,5,145 # Opcode latencies for integers <ADD,MAX,MUL,MAD,DIV,SHFL>Default 1,1,19,25,145,32
-ptx_opcode_latency_fp          4,13,4,5,39 # Opcode latencies for single precision floating points <ADD,MAX,MUL,MAD,DIV>Default 1,1,1,1,30
-ptx_opcode_latency_dp         8,19,8,8,330 # Opcode latencies for double precision floating points <ADD,MAX,MUL,MAD,DIV>Default 8,8,8,8,335
-ptx_opcode_latency_sfu                    8 # Opcode latencies for SFU instructionsDefault 8
-ptx_opcode_latency_tesnor                   64 # Opcode latencies for Tensor instructionsDefault 64
-ptx_opcode_initiation_int            1,2,2,2,8 # Opcode initiation intervals for integers <ADD,MAX,MUL,MAD,DIV,SHFL>Default 1,1,4,4,32,4
-ptx_opcode_initiation_fp            1,2,1,1,4 # Opcode initiation intervals for single precision floating points <ADD,MAX,MUL,MAD,DIV>Default 1,1,1,1,5
-ptx_opcode_initiation_dp          1,2,1,1,130 # Opcode initiation intervals for double precision floating points <ADD,MAX,MUL,MAD,DIV>Default 8,8,8,8,130
-ptx_opcode_initiation_sfu                    8 # Opcode initiation intervals for sfu instructionsDefault 8
-ptx_opcode_initiation_tensor                   64 # Opcode initiation intervals for tensor instructionsDefault 64
-cdp_latency         7200,8000,100,12000,1600 # CDP API latency <cudaStreamCreateWithFlags, cudaGetParameterBufferV2_init_perWarp, cudaGetParameterBufferV2_perKernel, cudaLaunchDeviceV2_init_perWarp, cudaLaunchDevicV2_perKernel>Default 7200,8000,100,12000,1600
-network_mode                           1 # Interconnection network mode
-inter_config_file   config_fermi_islip.icnt # Interconnection network config file
-icnt_in_buffer_limit                   64 # in_buffer_limit
-icnt_out_buffer_limit                   64 # out_buffer_limit
-icnt_subnets                           2 # subnets
-icnt_arbiter_algo                      1 # arbiter_algo
-icnt_verbose                           0 # inct_verbose
-icnt_grant_cycles                      1 # grant_cycles
-gpgpu_ptx_use_cuobjdump                    1 # Use cuobjdump to extract ptx and sass from binaries
-gpgpu_experimental_lib_support                    0 # Try to extract code from cuda libraries [Broken because of unknown cudaGetExportTable]
-checkpoint_option                      0 #  checkpointing flag (0 = no checkpoint)
-checkpoint_kernel                      1 #  checkpointing during execution of which kernel (1- 1st kernel)
-checkpoint_CTA                         0 #  checkpointing after # of CTA (< less than total CTA)
-resume_option                          0 #  resume flag (0 = no resume)
-resume_kernel                          0 #  Resume from which kernel (1= 1st kernel)
-resume_CTA                             0 #  resume from which CTA 
-checkpoint_CTA_t                       0 #  resume from which CTA 
-checkpoint_insn_Y                      0 #  resume from which CTA 
-gpgpu_ptx_convert_to_ptxplus                    0 # Convert SASS (native ISA) to ptxplus and run ptxplus
-gpgpu_ptx_force_max_capability                   60 # Force maximum compute capability
-gpgpu_ptx_inst_debug_to_file                    0 # Dump executed instructions' debug information to file
-gpgpu_ptx_inst_debug_file       inst_debug.txt # Executed instructions' debug output file
-gpgpu_ptx_inst_debug_thread_uid                    1 # Thread UID for executed instructions' debug output
-gpgpu_simd_model                       1 # 1 = post-dominator
-gpgpu_shader_core_pipeline              2048:32 # shader core pipeline config, i.e., {<nthread>:<warpsize>}
-gpgpu_tex_cache:l1  N:16:128:24,L:R:m:N:L,F:128:4,128:2 # per-shader L1 texture cache  (READ-ONLY) config  {<nsets>:<bsize>:<assoc>,<rep>:<wr>:<alloc>:<wr_alloc>,<mshr>:<N>:<merge>,<mq>:<rf>}
-gpgpu_const_cache:l1 N:128:64:2,L:R:f:N:L,A:2:64,4 # per-shader L1 constant memory cache  (READ-ONLY) config  {<nsets>:<bsize>:<assoc>,<rep>:<wr>:<alloc>:<wr_alloc>,<mshr>:<N>:<merge>,<mq>} 
-gpgpu_cache:il1     N:8:128:4,L:R:f:N:L,A:2:48,4 # shader L1 instruction cache config  {<nsets>:<bsize>:<assoc>,<rep>:<wr>:<alloc>:<wr_alloc>,<mshr>:<N>:<merge>,<mq>} 
-gpgpu_cache:dl1     N:64:128:6,L:L:m:N:H,A:128:8,8 # per-shader L1 data cache config  {<nsets>:<bsize>:<assoc>,<rep>:<wr>:<alloc>:<wr_alloc>,<mshr>:<N>:<merge>,<mq> | none}
-gpgpu_l1_cache_write_ratio                    0 # L1D write ratio
-gpgpu_l1_banks                         1 # The number of L1 cache banks
-gpgpu_l1_banks_byte_interleaving                   32 # l1 banks byte interleaving granularity
-gpgpu_l1_banks_hashing_function                    0 # l1 banks hashing function
-gpgpu_l1_latency                       1 # L1 Hit Latency
-gpgpu_smem_latency                     3 # smem Latency
-gpgpu_cache:dl1PrefL1                 none # per-shader L1 data cache config  {<nsets>:<bsize>:<assoc>,<rep>:<wr>:<alloc>:<wr_alloc>,<mshr>:<N>:<merge>,<mq> | none}
-gpgpu_cache:dl1PrefShared                 none # per-shader L1 data cache config  {<nsets>:<bsize>:<assoc>,<rep>:<wr>:<alloc>:<wr_alloc>,<mshr>:<N>:<merge>,<mq> | none}
-gpgpu_gmem_skip_L1D                    1 # global memory access skip L1D cache (implements -Xptxas -dlcm=cg, default=no skip)
-gpgpu_perfect_mem                      0 # enable perfect memory mode (no cache miss)
-n_regfile_gating_group                    4 # group of lanes that should be read/written together)
-gpgpu_clock_gated_reg_file                    0 # enable clock gated reg file for power calculations
-gpgpu_clock_gated_lanes                    0 # enable clock gated lanes for power calculations
-gpgpu_shader_registers                65536 # Number of registers per shader core. Limits number of concurrent CTAs. (default 8192)
-gpgpu_registers_per_block                 8192 # Maximum number of registers per CTA. (default 8192)
-gpgpu_ignore_resources_limitation                    0 # gpgpu_ignore_resources_limitation (default 0)
-gpgpu_shader_cta                      32 # Maximum number of concurrent CTAs in shader (default 32)
-gpgpu_num_cta_barriers                   16 # Maximum number of named barriers per CTA (default 16)
-gpgpu_n_clusters                      20 # number of processing clusters
-gpgpu_n_cores_per_cluster                    1 # number of simd cores per cluster
-gpgpu_n_cluster_ejection_buffer_size                    8 # number of packets in ejection buffer
-gpgpu_n_ldst_response_buffer_size                    2 # number of response packets in ld/st unit ejection buffer
-gpgpu_shmem_per_block                49152 # Size of shared memory per thread block or CTA (default 48kB)
-gpgpu_shmem_size                   98304 # Size of shared memory per shader core (default 16kB)
-gpgpu_shmem_option                     0 # Option list of shared memory sizes
-gpgpu_unified_l1d_size                    0 # Size of unified data cache(L1D + shared memory) in KB
-gpgpu_adaptive_cache_config                    0 # adaptive_cache_config
-gpgpu_shmem_sizeDefault                16384 # Size of shared memory per shader core (default 16kB)
-gpgpu_shmem_size_PrefL1                16384 # Size of shared memory per shader core (default 16kB)
-gpgpu_shmem_size_PrefShared                16384 # Size of shared memory per shader core (default 16kB)
-gpgpu_shmem_num_banks                   32 # Number of banks in the shared memory in each shader core (default 16)
-gpgpu_shmem_limited_broadcast                    0 # Limit shared memory to do one broadcast per cycle (default on)
-gpgpu_shmem_warp_parts                    1 # Number of portions a warp is divided into for shared memory bank conflict check 
-gpgpu_mem_unit_ports                    1 # The number of memory transactions allowed per core cycle
-gpgpu_shmem_warp_parts                    1 # Number of portions a warp is divided into for shared memory bank conflict check 
-gpgpu_warpdistro_shader                   -1 # Specify which shader core to collect the warp size distribution from
-gpgpu_warp_issue_shader                    0 # Specify which shader core to collect the warp issue distribution from
-gpgpu_local_mem_map                    1 # Mapping from local memory space address to simulated GPU physical address space (default = enabled)
-gpgpu_num_reg_banks                   32 # Number of register banks (default = 8)
-gpgpu_reg_bank_use_warp_id                    0 # Use warp ID in mapping registers to banks (default = off)
-gpgpu_sub_core_model                    0 # Sub Core Volta/Pascal model (default = off)
-gpgpu_enable_specialized_operand_collector                    1 # enable_specialized_operand_collector
-gpgpu_operand_collector_num_units_sp                   20 # number of collector units (default = 4)
-gpgpu_operand_collector_num_units_dp                    0 # number of collector units (default = 0)
-gpgpu_operand_collector_num_units_sfu                    4 # number of collector units (default = 4)
-gpgpu_operand_collector_num_units_int                    0 # number of collector units (default = 0)
-gpgpu_operand_collector_num_units_tensor_core                    4 # number of collector units (default = 4)
-gpgpu_operand_collector_num_units_mem                    8 # number of collector units (default = 2)
-gpgpu_operand_collector_num_units_gen                    0 # number of collector units (default = 0)
-gpgpu_operand_collector_num_in_ports_sp                    4 # number of collector unit in ports (default = 1)
-gpgpu_operand_collector_num_in_ports_dp                    0 # number of collector unit in ports (default = 0)
-gpgpu_operand_collector_num_in_ports_sfu                    1 # number of collector unit in ports (default = 1)
-gpgpu_operand_collector_num_in_ports_int                    0 # number of collector unit in ports (default = 0)
-gpgpu_operand_collector_num_in_ports_tensor_core                    1 # number of collector unit in ports (default = 1)
-gpgpu_operand_collector_num_in_ports_mem                    1 # number of collector unit in ports (default = 1)
-gpgpu_operand_collector_num_in_ports_gen                    0 # number of collector unit in ports (default = 0)
-gpgpu_operand_collector_num_out_ports_sp                    4 # number of collector unit in ports (default = 1)
-gpgpu_operand_collector_num_out_ports_dp                    0 # number of collector unit in ports (default = 0)
-gpgpu_operand_collector_num_out_ports_sfu                    1 # number of collector unit in ports (default = 1)
-gpgpu_operand_collector_num_out_ports_int                    0 # number of collector unit in ports (default = 0)
-gpgpu_operand_collector_num_out_ports_tensor_core                    1 # number of collector unit in ports (default = 1)
-gpgpu_operand_collector_num_out_ports_mem                    1 # number of collector unit in ports (default = 1)
-gpgpu_operand_collector_num_out_ports_gen                    0 # number of collector unit in ports (default = 0)
-gpgpu_coalesce_arch                   13 # Coalescing arch (GT200 = 13, Fermi = 20)
-gpgpu_num_sched_per_core                    2 # Number of warp schedulers per core
-gpgpu_max_insn_issue_per_warp                    2 # Max number of instructions that can be issued per warp in one cycle by scheduler (either 1 or 2)
-gpgpu_dual_issue_diff_exec_units                    1 # should dual issue use two different execution unit resources (Default = 1)
-gpgpu_simt_core_sim_order                    1 # Select the simulation order of cores in a cluster (0=Fix, 1=Round-Robin)
-gpgpu_pipeline_widths 4,0,0,1,1,4,0,0,1,1,6 # Pipeline widths ID_OC_SP,ID_OC_DP,ID_OC_INT,ID_OC_SFU,ID_OC_MEM,OC_EX_SP,OC_EX_DP,OC_EX_INT,OC_EX_SFU,OC_EX_MEM,EX_WB,ID_OC_TENSOR_CORE,OC_EX_TENSOR_CORE
-gpgpu_tensor_core_avail                    0 # Tensor Core Available (default=0)
-gpgpu_num_sp_units                     4 # Number of SP units (default=1)
-gpgpu_num_dp_units                     0 # Number of DP units (default=0)
-gpgpu_num_int_units                    0 # Number of INT units (default=0)
-gpgpu_num_sfu_units                    1 # Number of SF units (default=1)
-gpgpu_num_tensor_core_units                    0 # Number of tensor_core units (default=1)
-gpgpu_num_mem_units                    1 # Number if ldst units (default=1) WARNING: not hooked up to anything
-gpgpu_scheduler                      gto # Scheduler configuration: < lrr | gto | two_level_active > If two_level_active:<num_active_warps>:<inner_prioritization>:<outer_prioritization>For complete list of prioritization values see shader.h enum scheduler_prioritization_typeDefault: gto
-gpgpu_concurrent_kernel_sm                    0 # Support concurrent kernels on a SM (default = disabled)
-gpgpu_perfect_inst_const_cache                    0 # perfect inst and const cache mode, so all inst and const hits in the cache(default = disabled)
-gpgpu_inst_fetch_throughput                    1 # the number of fetched intruction per warp each cycle
-gpgpu_reg_file_port_throughput                    1 # the number ports of the register file
-specialized_unit_1         0,4,4,4,4,BRA # specialized unit config {<enabled>,<num_units>:<latency>:<initiation>,<ID_OC_SPEC>:<OC_EX_SPEC>,<NAME>}
-specialized_unit_2         0,4,4,4,4,BRA # specialized unit config {<enabled>,<num_units>:<latency>:<initiation>,<ID_OC_SPEC>:<OC_EX_SPEC>,<NAME>}
-specialized_unit_3         0,4,4,4,4,BRA # specialized unit config {<enabled>,<num_units>:<latency>:<initiation>,<ID_OC_SPEC>:<OC_EX_SPEC>,<NAME>}
-specialized_unit_4         0,4,4,4,4,BRA # specialized unit config {<enabled>,<num_units>:<latency>:<initiation>,<ID_OC_SPEC>:<OC_EX_SPEC>,<NAME>}
-specialized_unit_5         0,4,4,4,4,BRA # specialized unit config {<enabled>,<num_units>:<latency>:<initiation>,<ID_OC_SPEC>:<OC_EX_SPEC>,<NAME>}
-specialized_unit_6         0,4,4,4,4,BRA # specialized unit config {<enabled>,<num_units>:<latency>:<initiation>,<ID_OC_SPEC>:<OC_EX_SPEC>,<NAME>}
-specialized_unit_7         0,4,4,4,4,BRA # specialized unit config {<enabled>,<num_units>:<latency>:<initiation>,<ID_OC_SPEC>:<OC_EX_SPEC>,<NAME>}
-specialized_unit_8         0,4,4,4,4,BRA # specialized unit config {<enabled>,<num_units>:<latency>:<initiation>,<ID_OC_SPEC>:<OC_EX_SPEC>,<NAME>}
-gpgpu_perf_sim_memcpy                    1 # Fill the L2 cache on memcpy
-gpgpu_simple_dram_model                    0 # simple_dram_model with fixed latency and BW
-gpgpu_dram_scheduler                    1 # 0 = fifo, 1 = FR-FCFS (defaul)
-gpgpu_dram_partition_queues              8:8:8:8 # i2$:$2d:d2$:$2i
-l2_ideal                               0 # Use a ideal L2 cache that always hit
-gpgpu_cache:dl2     N:64:128:16,L:B:m:W:L,A:1024:1024,4:0,32 # unified banked L2 data cache config  {<nsets>:<bsize>:<assoc>,<rep>:<wr>:<alloc>:<wr_alloc>,<mshr>:<N>:<merge>,<mq>}
-gpgpu_cache:dl2_texture_only                    0 # L2 cache used for texture only
-gpgpu_n_mem                            8 # number of memory modules (e.g. memory controllers) in gpu
-gpgpu_n_sub_partition_per_mchannel                    2 # number of memory subpartition in each memory module
-gpgpu_n_mem_per_ctrlr                    1 # number of memory chips per memory controller
-gpgpu_memlatency_stat                   14 # track and display latency statistics 0x2 enables MC, 0x4 enables queue logs
-gpgpu_frfcfs_dram_sched_queue_size                   64 # 0 = unlimited (default); # entries per chip
-gpgpu_dram_return_queue_size                  116 # 0 = unlimited (default); # entries per chip
-gpgpu_dram_buswidth                    4 # default = 4 bytes (8 bytes per cycle at DDR)
-gpgpu_dram_burst_length                    8 # Burst length of each DRAM request (default = 4 data bus cycle)
-dram_data_command_freq_ratio                    4 # Frequency ratio between DRAM data bus and command bus (default = 2 times, i.e. DDR)
-gpgpu_dram_timing_opt nbk=16:CCD=2:RRD=6:RCD=12:RAS=28:RP=12:RC=40: CL=12:WL=4:CDLR=5:WR=12:nbkgrp=1:CCDL=0:RTPL=0 # DRAM timing parameters = {nbk:tCCD:tRRD:tRCD:tRAS:tRP:tRC:CL:WL:tCDLR:tWR:nbkgrp:tCCDL:tRTPL}
-gpgpu_l2_rop_latency                  120 # ROP queue latency (default 85)
-dram_latency                         100 # DRAM latency (default 30)
-dram_dual_bus_interface                    0 # dual_bus_interface (default = 0) 
-dram_bnk_indexing_policy                    0 # dram_bnk_indexing_policy (0 = normal indexing, 1 = Xoring with the higher bits) (Default = 0)
-dram_bnkgrp_indexing_policy                    0 # dram_bnkgrp_indexing_policy (0 = take higher bits, 1 = take lower bits) (Default = 0)
-dram_seperate_write_queue_enable                    0 # Seperate_Write_Queue_Enable
-dram_write_queue_size             32:28:16 # Write_Queue_Size
-dram_elimnate_rw_turnaround                    0 # elimnate_rw_turnaround i.e set tWTR and tRTW = 0
-icnt_flit_size                        32 # icnt_flit_size
-gpgpu_mem_addr_mapping dramid@8;00000000.00000000.00000000.00000000.0000RRRR.RRRRRRRR.RBBBCCCC.BCCSSSSS # mapping memory address to dram model {dramid@<start bit>;<memory address map>}
-gpgpu_mem_addr_test                    0 # run sweep test to check address mapping for aliased address
-gpgpu_mem_address_mask                    1 # 0 = old addressing mask, 1 = new addressing mask, 2 = new add. mask + flipped bank sel and chip sel bits
-gpgpu_memory_partition_indexing                    0 # 0 = no indexing, 1 = bitwise xoring, 2 = IPoly, 3 = custom indexing
-accelwattch_xml_file accelwattch_sass_sim.xml # AccelWattch XML file
-power_simulation_enabled                    0 # Turn on power simulator (1=On, 0=Off)
-power_per_cycle_dump                    0 # Dump detailed power output each cycle
-hw_perf_file_name            hw_perf.csv # Hardware Performance Statistics file
-hw_perf_bench_name                       # Kernel Name in Hardware Performance Statistics file
-power_simulation_mode                    0 # Switch performance counter input for power simulation (0=Sim, 1=HW, 2=HW-Sim Hybrid)
-dvfs_enabled                           0 # Turn on DVFS for power model
-aggregate_power_stats                    0 # Accumulate power across all kernels
-accelwattch_hybrid_perfsim_L1_RH                    0 # Get L1 Read Hits for Accelwattch-Hybrid from Accel-Sim
-accelwattch_hybrid_perfsim_L1_RM                    0 # Get L1 Read Misses for Accelwattch-Hybrid from Accel-Sim
-accelwattch_hybrid_perfsim_L1_WH                    0 # Get L1 Write Hits for Accelwattch-Hybrid from Accel-Sim
-accelwattch_hybrid_perfsim_L1_WM                    0 # Get L1 Write Misses for Accelwattch-Hybrid from Accel-Sim
-accelwattch_hybrid_perfsim_L2_RH                    0 # Get L2 Read Hits for Accelwattch-Hybrid from Accel-Sim
-accelwattch_hybrid_perfsim_L2_RM                    0 # Get L2 Read Misses for Accelwattch-Hybrid from Accel-Sim
-accelwattch_hybrid_perfsim_L2_WH                    0 # Get L2 Write Hits for Accelwattch-Hybrid from Accel-Sim
-accelwattch_hybrid_perfsim_L2_WM                    0 # Get L2 Write Misses for Accelwattch-Hybrid from Accel-Sim
-accelwattch_hybrid_perfsim_CC_ACC                    0 # Get Constant Cache Acesses for Accelwattch-Hybrid from Accel-Sim
-accelwattch_hybrid_perfsim_SHARED_ACC                    0 # Get Shared Memory Acesses for Accelwattch-Hybrid from Accel-Sim
-accelwattch_hybrid_perfsim_DRAM_RD                    0 # Get DRAM Reads for Accelwattch-Hybrid from Accel-Sim
-accelwattch_hybrid_perfsim_DRAM_WR                    0 # Get DRAM Writes for Accelwattch-Hybrid from Accel-Sim
-accelwattch_hybrid_perfsim_NOC                    0 # Get Interconnect Acesses for Accelwattch-Hybrid from Accel-Sim
-accelwattch_hybrid_perfsim_PIPE_DUTY                    0 # Get Pipeline Duty Cycle Acesses for Accelwattch-Hybrid from Accel-Sim
-accelwattch_hybrid_perfsim_NUM_SM_IDLE                    0 # Get Number of Idle SMs for Accelwattch-Hybrid from Accel-Sim
-accelwattch_hybrid_perfsim_CYCLES                    0 # Get Executed Cycles for Accelwattch-Hybrid from Accel-Sim
-accelwattch_hybrid_perfsim_VOLTAGE                    0 # Get Chip Voltage for Accelwattch-Hybrid from Accel-Sim
-power_trace_enabled                    0 # produce a file for the power trace (1=On, 0=Off)
-power_trace_zlevel                     6 # Compression level of the power trace output log (0=no comp, 9=highest)
-steady_power_levels_enabled                    0 # produce a file for the steady power levels (1=On, 0=Off)
-steady_state_definition                  8:4 # allowed deviation:number of samples
-gpgpu_max_cycle                        0 # terminates gpu simulation early (0 = no limit)
-gpgpu_max_insn                         0 # terminates gpu simulation early (0 = no limit)
-gpgpu_max_cta                          0 # terminates gpu simulation early (0 = no limit)
-gpgpu_max_completed_cta                    0 # terminates gpu simulation early (0 = no limit)
-gpgpu_runtime_stat                   500 # display runtime statistics such as dram utilization {<freq>:<flag>}
-liveness_message_freq                    1 # Minimum number of seconds between simulation liveness messages (0 = always print)
-gpgpu_compute_capability_major                    7 # Major compute capability version number
-gpgpu_compute_capability_minor                    0 # Minor compute capability version number
-gpgpu_flush_l1_cache                    0 # Flush L1 cache at the end of each kernel call
-gpgpu_flush_l2_cache                    0 # Flush L2 cache at the end of each kernel call
-gpgpu_deadlock_detect                    1 # Stop the simulation at deadlock (1=on (default), 0=off)
-gpgpu_ptx_instruction_classification                    0 # if enabled will classify ptx instruction types per kernel (Max 255 kernels now)
-gpgpu_ptx_sim_mode                     0 # Select between Performance (default) or Functional simulation (1)
-gpgpu_clock_domains 1607.0:2962.0:1607.0:2750.0 # Clock Domain Frequencies in MhZ {<Core Clock>:<ICNT Clock>:<L2 Clock>:<DRAM Clock>}
-gpgpu_max_concurrent_kernel                   32 # maximum kernels that can run concurrently on GPU, set this value according to max resident grids for your compute capability
-gpgpu_cflog_interval                    0 # Interval between each snapshot in control flow logger
-visualizer_enabled                     0 # Turn on visualizer output (1=On, 0=Off)
-visualizer_outputfile                 NULL # Specifies the output log file for visualizer
-visualizer_zlevel                      6 # Compression level of the visualizer output log (0=no comp, 9=highest)
-gpgpu_stack_size_limit                 1024 # GPU thread stack size
-gpgpu_heap_size_limit              8388608 # GPU malloc heap size 
-gpgpu_runtime_sync_depth_limit                    2 # GPU device runtime synchronize depth
-gpgpu_runtime_pending_launch_count_limit                 2048 # GPU device runtime pending launch count
-trace_enabled                          0 # Turn on traces
-trace_components                    none # comma seperated list of traces to enable. Complete list found in trace_streams.tup. Default none
-trace_sampling_core                    0 # The core which is printed using CORE_DPRINTF. Default 0
-trace_sampling_memory_partition                   -1 # The memory partition which is printed using MEMPART_DPRINTF. Default -1 (i.e. all)
-enable_ptx_file_line_stats                    1 # Turn on PTX source line statistic profiling. (1 = On)
-ptx_line_stats_filename gpgpu_inst_stats.txt # Output file for PTX source line statistics.
-gpgpu_kernel_launch_latency                    0 # Kernel launch latency in cycles. Default: 0
-gpgpu_cdp_enabled                      0 # Turn on CDP
-gpgpu_TB_launch_latency                    0 # thread block launch latency in cycles. Default: 0
-trace               /benchrun/accelsim-sass/babelstream/sm6_gtx1080/input-arraysize-10240-numtimes-1/results/traces/kernelslist.g # traces kernel filetraces kernel file directory
-trace_opcode_latency_initiation_int                  4,1 # Opcode latencies and initiation for integers in trace driven mode <latency,initiation>
-trace_opcode_latency_initiation_sp                  4,1 # Opcode latencies and initiation for sp in trace driven mode <latency,initiation>
-trace_opcode_latency_initiation_dp                  4,1 # Opcode latencies and initiation for dp in trace driven mode <latency,initiation>
-trace_opcode_latency_initiation_sfu                  4,1 # Opcode latencies and initiation for sfu in trace driven mode <latency,initiation>
-trace_opcode_latency_initiation_tensor                  4,1 # Opcode latencies and initiation for tensor in trace driven mode <latency,initiation>
-trace_opcode_latency_initiation_spec_op_1                  4,4 # specialized unit config <latency,initiation>
-trace_opcode_latency_initiation_spec_op_2                  4,4 # specialized unit config <latency,initiation>
-trace_opcode_latency_initiation_spec_op_3                  4,4 # specialized unit config <latency,initiation>
-trace_opcode_latency_initiation_spec_op_4                  4,4 # specialized unit config <latency,initiation>
-trace_opcode_latency_initiation_spec_op_5                  4,4 # specialized unit config <latency,initiation>
-trace_opcode_latency_initiation_spec_op_6                  4,4 # specialized unit config <latency,initiation>
-trace_opcode_latency_initiation_spec_op_7                  4,4 # specialized unit config <latency,initiation>
-trace_opcode_latency_initiation_spec_op_8                  4,4 # specialized unit config <latency,initiation>
DRAM Timing Options:
nbk                                    16 # number of banks
CCD                                     2 # column to column delay
RRD                                     6 # minimal delay between activation of rows in different banks
RCD                                    12 # row to column delay
RAS                                    28 # time needed to activate row
RP                                     12 # time needed to precharge (deactivate) row
RC                                     40 # row cycle time
CDLR                                    5 # switching from write to read (changes tWTR)
WR                                     12 # last data-in to row precharge
CL                                     12 # CAS latency
WL                                      4 # Write latency
nbkgrp                                  1 # number of bank groups
CCDL                                    0 # column to column delay between accesses to different bank groups
RTPL                                    0 # read to precharge delay between accesses to different bank groups
Total number of memory sub partition = 16
addr_dec_mask[CHIP]  = 0000000000000700 	high:11 low:8
addr_dec_mask[BK]    = 0000000000038080 	high:18 low:7
addr_dec_mask[ROW]   = 000000007ffc0000 	high:31 low:18
addr_dec_mask[COL]   = 000000000000787f 	high:15 low:0
addr_dec_mask[BURST] = 000000000000001f 	high:5 low:0
sub_partition_id_mask = 0000000000000080
GPGPU-Sim uArch: clock freqs: 1607000000.000000:2962000000.000000:1607000000.000000:2750000000.000000
GPGPU-Sim uArch: clock periods: 0.00000000062227753578:0.00000000033760972316:0.00000000062227753578:0.00000000036363636364
*** Initializing Memory Statistics ***
GPGPU-Sim uArch: interconnect node map (shaderID+MemID to icntID)
GPGPU-Sim uArch: Memory nodes ID start from index: 20
GPGPU-Sim uArch:    0   1   2   3   4   5   6
GPGPU-Sim uArch:    7   8   9  10  11  12  13
GPGPU-Sim uArch:   14  15  16  17  18  19  20
GPGPU-Sim uArch:   21  22  23  24  25  26  27
GPGPU-Sim uArch:   28  29  30  31  32  33  34
GPGPU-Sim uArch:   35  36  37  38  39  40  41
GPGPU-Sim uArch:   42  43  44  45  46  47  48
GPGPU-Sim uArch:   49
GPGPU-Sim uArch: interconnect node reverse map (icntID to shaderID+MemID)
GPGPU-Sim uArch: Memory nodes start from ID: 20
GPGPU-Sim uArch:    0   1   2   3   4   5   6
GPGPU-Sim uArch:    7   8   9  10  11  12  13
GPGPU-Sim uArch:   14  15  16  17  18  19  20
GPGPU-Sim uArch:   21  22  23  24  25  26  27
GPGPU-Sim uArch:   28  29  30  31  32  33  34
GPGPU-Sim uArch:   35  36  37  38  39  40  41
GPGPU-Sim uArch:   42  43  44  45  46  47  48
GPGPU-Sim uArch:   49
GPGPU-Sim uArch: performance model initialization complete.
Processing kernel /benchrun/accelsim-sass/babelstream/sm6_gtx1080/input-arraysize-10240-numtimes-1/results/traces/kernel-1.traceg
-kernel name = _Z11init_kernelIdEvPT_S1_S1_S0_S0_S0_
-kernel id = 1
-grid dim = (10,1,1)
-block dim = (1024,1,1)
-shmem = 0
-nregs = 14
-binary version = 61
-cuda stream id = 0
-shmem base_addr = 0x00007fef22000000
-local mem base_addr = 0x00007fef20000000
-nvbit version = 1.5.5
-accelsim tracer version = 3
Header info loaded for kernel command : /benchrun/accelsim-sass/babelstream/sm6_gtx1080/input-arraysize-10240-numtimes-1/results/traces/kernel-1.traceg
launching kernel name: _Z11init_kernelIdEvPT_S1_S1_S0_S0_S0_ uid: 1
GPGPU-Sim uArch: Shader 0 bind to kernel 1 '_Z11init_kernelIdEvPT_S1_S1_S0_S0_S0_'
GPGPU-Sim uArch: CTA/core = 2, limited by: threads
thread block = 0,0,0
GPGPU-Sim uArch: Shader 1 bind to kernel 1 '_Z11init_kernelIdEvPT_S1_S1_S0_S0_S0_'
thread block = 1,0,0
GPGPU-Sim uArch: Shader 2 bind to kernel 1 '_Z11init_kernelIdEvPT_S1_S1_S0_S0_S0_'
thread block = 2,0,0
GPGPU-Sim uArch: Shader 3 bind to kernel 1 '_Z11init_kernelIdEvPT_S1_S1_S0_S0_S0_'
thread block = 3,0,0
GPGPU-Sim uArch: Shader 4 bind to kernel 1 '_Z11init_kernelIdEvPT_S1_S1_S0_S0_S0_'
thread block = 4,0,0
GPGPU-Sim uArch: Shader 5 bind to kernel 1 '_Z11init_kernelIdEvPT_S1_S1_S0_S0_S0_'
thread block = 5,0,0
GPGPU-Sim uArch: Shader 6 bind to kernel 1 '_Z11init_kernelIdEvPT_S1_S1_S0_S0_S0_'
thread block = 6,0,0
GPGPU-Sim uArch: Shader 7 bind to kernel 1 '_Z11init_kernelIdEvPT_S1_S1_S0_S0_S0_'
thread block = 7,0,0
GPGPU-Sim uArch: Shader 8 bind to kernel 1 '_Z11init_kernelIdEvPT_S1_S1_S0_S0_S0_'
thread block = 8,0,0
GPGPU-Sim uArch: Shader 9 bind to kernel 1 '_Z11init_kernelIdEvPT_S1_S1_S0_S0_S0_'
thread block = 9,0,0
Destroy streams for kernel 1: size 0
kernel_name = _Z11init_kernelIdEvPT_S1_S1_S0_S0_S0_ 
kernel_launch_uid = 1 
gpu_sim_cycle = 3529
gpu_sim_insn = 245760
gpu_ipc =      69.6401
gpu_tot_sim_cycle = 3529
gpu_tot_sim_insn = 245760
gpu_tot_ipc =      69.6401
gpu_tot_issued_cta = 10
gpu_occupancy = 36.5081% 
gpu_tot_occupancy = 36.5081% 
max_total_param_size = 0
gpu_stall_dramfull = 12177
gpu_stall_icnt2sh    = 67
partiton_level_parallism =       0.5497
partiton_level_parallism_total  =       0.5497
partiton_level_parallism_util =       3.1596
partiton_level_parallism_util_total  =       3.1596
L2_BW  =      52.1057 GB/Sec
L2_BW_total  =      52.1057 GB/Sec
gpu_total_sim_rate=245760

========= Core cache stats =========
L1I_cache:
	L1I_total_cache_accesses = 3840
	L1I_total_cache_misses = 640
	L1I_total_cache_miss_rate = 0.1667
	L1I_total_cache_pending_hits = 0
	L1I_total_cache_reservation_fails = 0
L1D_cache:
	L1D_cache_core[0]: Access = 0, Miss = 0, Miss_rate = -nan, Pending_hits = 0, Reservation_fails = 0
	L1D_cache_core[1]: Access = 0, Miss = 0, Miss_rate = -nan, Pending_hits = 0, Reservation_fails = 0
	L1D_cache_core[2]: Access = 0, Miss = 0, Miss_rate = -nan, Pending_hits = 0, Reservation_fails = 0
	L1D_cache_core[3]: Access = 0, Miss = 0, Miss_rate = -nan, Pending_hits = 0, Reservation_fails = 0
	L1D_cache_core[4]: Access = 0, Miss = 0, Miss_rate = -nan, Pending_hits = 0, Reservation_fails = 0
	L1D_cache_core[5]: Access = 0, Miss = 0, Miss_rate = -nan, Pending_hits = 0, Reservation_fails = 0
	L1D_cache_core[6]: Access = 0, Miss = 0, Miss_rate = -nan, Pending_hits = 0, Reservation_fails = 0
	L1D_cache_core[7]: Access = 0, Miss = 0, Miss_rate = -nan, Pending_hits = 0, Reservation_fails = 0
	L1D_cache_core[8]: Access = 0, Miss = 0, Miss_rate = -nan, Pending_hits = 0, Reservation_fails = 0
	L1D_cache_core[9]: Access = 0, Miss = 0, Miss_rate = -nan, Pending_hits = 0, Reservation_fails = 0
	L1D_cache_core[10]: Access = 0, Miss = 0, Miss_rate = -nan, Pending_hits = 0, Reservation_fails = 0
	L1D_cache_core[11]: Access = 0, Miss = 0, Miss_rate = -nan, Pending_hits = 0, Reservation_fails = 0
	L1D_cache_core[12]: Access = 0, Miss = 0, Miss_rate = -nan, Pending_hits = 0, Reservation_fails = 0
	L1D_cache_core[13]: Access = 0, Miss = 0, Miss_rate = -nan, Pending_hits = 0, Reservation_fails = 0
	L1D_cache_core[14]: Access = 0, Miss = 0, Miss_rate = -nan, Pending_hits = 0, Reservation_fails = 0
	L1D_cache_core[15]: Access = 0, Miss = 0, Miss_rate = -nan, Pending_hits = 0, Reservation_fails = 0
	L1D_cache_core[16]: Access = 0, Miss = 0, Miss_rate = -nan, Pending_hits = 0, Reservation_fails = 0
	L1D_cache_core[17]: Access = 0, Miss = 0, Miss_rate = -nan, Pending_hits = 0, Reservation_fails = 0
	L1D_cache_core[18]: Access = 0, Miss = 0, Miss_rate = -nan, Pending_hits = 0, Reservation_fails = 0
	L1D_cache_core[19]: Access = 0, Miss = 0, Miss_rate = -nan, Pending_hits = 0, Reservation_fails = 0
	L1D_total_cache_accesses = 0
	L1D_total_cache_misses = 0
	L1D_total_cache_pending_hits = 0
	L1D_total_cache_reservation_fails = 0
	L1D_cache_data_port_util = 0.000
	L1D_cache_fill_port_util = 0.000
L1C_cache:
	L1C_total_cache_accesses = 0
	L1C_total_cache_misses = 0
	L1C_total_cache_pending_hits = 0
	L1C_total_cache_reservation_fails = 0
L1T_cache:
	L1T_total_cache_accesses = 0
	L1T_total_cache_misses = 0
	L1T_total_cache_pending_hits = 0
	L1T_total_cache_reservation_fails = 0

Total_core_cache_stats:
	Total_core_cache_stats_breakdown[GLOBAL_ACC_R][HIT] = 0
	Total_core_cache_stats_breakdown[GLOBAL_ACC_R][HIT_RESERVED] = 0
	Total_core_cache_stats_breakdown[GLOBAL_ACC_R][MISS] = 0
	Total_core_cache_stats_breakdown[GLOBAL_ACC_R][RESERVATION_FAIL] = 0
	Total_core_cache_stats_breakdown[GLOBAL_ACC_R][SECTOR_MISS] = 0
	Total_core_cache_stats_breakdown[GLOBAL_ACC_R][MSHR_HIT] = 0
	Total_core_cache_stats_breakdown[LOCAL_ACC_R][HIT] = 0
	Total_core_cache_stats_breakdown[LOCAL_ACC_R][HIT_RESERVED] = 0
	Total_core_cache_stats_breakdown[LOCAL_ACC_R][MISS] = 0
	Total_core_cache_stats_breakdown[LOCAL_ACC_R][RESERVATION_FAIL] = 0
	Total_core_cache_stats_breakdown[LOCAL_ACC_R][SECTOR_MISS] = 0
	Total_core_cache_stats_breakdown[LOCAL_ACC_R][MSHR_HIT] = 0
	Total_core_cache_stats_breakdown[CONST_ACC_R][HIT] = 0
	Total_core_cache_stats_breakdown[CONST_ACC_R][HIT_RESERVED] = 0
	Total_core_cache_stats_breakdown[CONST_ACC_R][MISS] = 0
	Total_core_cache_stats_breakdown[CONST_ACC_R][RESERVATION_FAIL] = 0
	Total_core_cache_stats_breakdown[CONST_ACC_R][SECTOR_MISS] = 0
	Total_core_cache_stats_breakdown[CONST_ACC_R][MSHR_HIT] = 0
	Total_core_cache_stats_breakdown[TEXTURE_ACC_R][HIT] = 0
	Total_core_cache_stats_breakdown[TEXTURE_ACC_R][HIT_RESERVED] = 0
	Total_core_cache_stats_breakdown[TEXTURE_ACC_R][MISS] = 0
	Total_core_cache_stats_breakdown[TEXTURE_ACC_R][RESERVATION_FAIL] = 0
	Total_core_cache_stats_breakdown[TEXTURE_ACC_R][SECTOR_MISS] = 0
	Total_core_cache_stats_breakdown[TEXTURE_ACC_R][MSHR_HIT] = 0
	Total_core_cache_stats_breakdown[GLOBAL_ACC_W][HIT] = 0
	Total_core_cache_stats_breakdown[GLOBAL_ACC_W][HIT_RESERVED] = 0
	Total_core_cache_stats_breakdown[GLOBAL_ACC_W][MISS] = 0
	Total_core_cache_stats_breakdown[GLOBAL_ACC_W][RESERVATION_FAIL] = 0
	Total_core_cache_stats_breakdown[GLOBAL_ACC_W][SECTOR_MISS] = 0
	Total_core_cache_stats_breakdown[GLOBAL_ACC_W][MSHR_HIT] = 0
	Total_core_cache_stats_breakdown[LOCAL_ACC_W][HIT] = 0
	Total_core_cache_stats_breakdown[LOCAL_ACC_W][HIT_RESERVED] = 0
	Total_core_cache_stats_breakdown[LOCAL_ACC_W][MISS] = 0
	Total_core_cache_stats_breakdown[LOCAL_ACC_W][RESERVATION_FAIL] = 0
	Total_core_cache_stats_breakdown[LOCAL_ACC_W][SECTOR_MISS] = 0
	Total_core_cache_stats_breakdown[LOCAL_ACC_W][MSHR_HIT] = 0
	Total_core_cache_stats_breakdown[L1_WRBK_ACC][HIT] = 0
	Total_core_cache_stats_breakdown[L1_WRBK_ACC][HIT_RESERVED] = 0
	Total_core_cache_stats_breakdown[L1_WRBK_ACC][MISS] = 0
	Total_core_cache_stats_breakdown[L1_WRBK_ACC][RESERVATION_FAIL] = 0
	Total_core_cache_stats_breakdown[L1_WRBK_ACC][SECTOR_MISS] = 0
	Total_core_cache_stats_breakdown[L1_WRBK_ACC][MSHR_HIT] = 0
	Total_core_cache_stats_breakdown[L2_WRBK_ACC][HIT] = 0
	Total_core_cache_stats_breakdown[L2_WRBK_ACC][HIT_RESERVED] = 0
	Total_core_cache_stats_breakdown[L2_WRBK_ACC][MISS] = 0
	Total_core_cache_stats_breakdown[L2_WRBK_ACC][RESERVATION_FAIL] = 0
	Total_core_cache_stats_breakdown[L2_WRBK_ACC][SECTOR_MISS] = 0
	Total_core_cache_stats_breakdown[L2_WRBK_ACC][MSHR_HIT] = 0
	Total_core_cache_stats_breakdown[INST_ACC_R][HIT] = 3200
	Total_core_cache_stats_breakdown[INST_ACC_R][HIT_RESERVED] = 0
	Total_core_cache_stats_breakdown[INST_ACC_R][MISS] = 640
	Total_core_cache_stats_breakdown[INST_ACC_R][RESERVATION_FAIL] = 0
	Total_core_cache_stats_breakdown[INST_ACC_R][SECTOR_MISS] = 0
	Total_core_cache_stats_breakdown[INST_ACC_R][MSHR_HIT] = 620
	Total_core_cache_stats_breakdown[L1_WR_ALLOC_R][HIT] = 0
	Total_core_cache_stats_breakdown[L1_WR_ALLOC_R][HIT_RESERVED] = 0
	Total_core_cache_stats_breakdown[L1_WR_ALLOC_R][MISS] = 0
	Total_core_cache_stats_breakdown[L1_WR_ALLOC_R][RESERVATION_FAIL] = 0
	Total_core_cache_stats_breakdown[L1_WR_ALLOC_R][SECTOR_MISS] = 0
	Total_core_cache_stats_breakdown[L1_WR_ALLOC_R][MSHR_HIT] = 0
	Total_core_cache_stats_breakdown[L2_WR_ALLOC_R][HIT] = 0
	Total_core_cache_stats_breakdown[L2_WR_ALLOC_R][HIT_RESERVED] = 0
	Total_core_cache_stats_breakdown[L2_WR_ALLOC_R][MISS] = 0
	Total_core_cache_stats_breakdown[L2_WR_ALLOC_R][RESERVATION_FAIL] = 0
	Total_core_cache_stats_breakdown[L2_WR_ALLOC_R][SECTOR_MISS] = 0
	Total_core_cache_stats_breakdown[L2_WR_ALLOC_R][MSHR_HIT] = 0
	Total_core_cache_stats_breakdown[INST_ACC_R][TOTAL_ACCESS] = 3840

Total_core_cache_fail_stats:
ctas_completed 10, Shader 0 warp_id issue ditsribution:
warp_id:
0, 1, 2, 3, 4, 5, 6, 7, 8, 9, 10, 11, 12, 13, 14, 15, 16, 17, 18, 19, 20, 21, 22, 23, 24, 25, 26, 27, 28, 29, 30, 31, 
distro:
26, 27, 27, 27, 27, 27, 27, 27, 27, 27, 27, 27, 27, 27, 26, 26, 26, 26, 26, 26, 26, 26, 26, 26, 26, 26, 26, 26, 26, 26, 26, 26, 
gpgpu_n_tot_thrd_icount = 245760
gpgpu_n_tot_w_icount = 7680
gpgpu_n_stall_shd_mem = 14353
gpgpu_n_mem_read_local = 0
gpgpu_n_mem_write_local = 0
gpgpu_n_mem_read_global = 0
gpgpu_n_mem_write_global = 1920
gpgpu_n_mem_texture = 0
gpgpu_n_mem_const = 0
gpgpu_n_load_insn  = 0
gpgpu_n_store_insn = 30720
gpgpu_n_shmem_insn = 0
gpgpu_n_sstarr_insn = 0
gpgpu_n_tex_insn = 0
gpgpu_n_const_mem_insn = 0
gpgpu_n_param_mem_insn = 0
gpgpu_n_shmem_bkconflict = 0
gpgpu_n_cache_bkconflict = 0
gpgpu_n_intrawarp_mshr_merge = 0
gpgpu_n_cmem_portconflict = 0
gpgpu_stall_shd_mem[c_mem][resource_stall] = 0
gpgpu_stall_shd_mem[s_mem][bk_conf] = 0
gpgpu_stall_shd_mem[gl_mem][resource_stall] = 0
gpgpu_stall_shd_mem[gl_mem][coal_stall] = 960
gpgpu_stall_shd_mem[gl_mem][data_port_stall] = 0
gpu_reg_bank_conflict_stalls = 0
Warp Occupancy Distribution:
Stall:24218	W0_Idle:36973	W0_Scoreboard:237	W1:0	W2:0	W3:0	W4:0	W5:0	W6:0	W7:0	W8:0	W9:0	W10:0	W11:0	W12:0	W13:0	W14:0	W15:0	W16:0	W17:0	W18:0	W19:0	W20:0	W21:0	W22:0	W23:0	W24:0	W25:0	W26:0	W27:0	W28:0	W29:0	W30:0	W31:0	W32:7680
single_issue_nums: WS0:3080	WS1:3060	
dual_issue_nums: WS0:380	WS1:390	
traffic_breakdown_coretomem[GLOBAL_ACC_W] = 261120 {136:1920,}
traffic_breakdown_coretomem[INST_ACC_R] = 160 {8:20,}
traffic_breakdown_memtocore[GLOBAL_ACC_W] = 15360 {8:1920,}
traffic_breakdown_memtocore[INST_ACC_R] = 2720 {136:20,}
maxmflatency = 1833 
max_icnt2mem_latency = 438 
maxmrqlatency = 1312 
max_icnt2sh_latency = 7 
averagemflatency = 855 
avg_icnt2mem_latency = 40 
avg_mrq_latency = 292 
avg_icnt2sh_latency = 4 
mrq_lat_table:290 	1 	23 	99 	57 	210 	363 	777 	1433 	562 	27 	0 	0 	0 	0 	0 	0 	0 	0 	0 	0 	0 	0 	0 	0 	0 	0 	0 	0 	0 	0 	0 	
dq_lat_table:0 	0 	0 	0 	0 	0 	0 	0 	0 	0 	0 	0 	0 	0 	0 	0 	0 	0 	0 	0 	0 	0 	0 	0 	0 	0 	0 	0 	0 	0 	0 	0 	
mf_lat_table:0 	0 	0 	0 	0 	0 	0 	51 	279 	974 	616 	0 	0 	0 	0 	0 	0 	0 	0 	0 	0 	0 	0 	0 	0 	0 	0 	0 	0 	0 	0 	0 	
icnt2mem_lat_table:0 	0 	24 	1383 	250 	40 	58 	99 	86 	0 	0 	0 	0 	0 	0 	0 	0 	0 	0 	0 	0 	0 	0 	0 	
icnt2sh_lat_table:0 	0 	1920 	0 	0 	0 	0 	0 	0 	0 	0 	0 	0 	0 	0 	0 	0 	0 	0 	0 	0 	0 	0 	0 	
mf_lat_pw_table:0 	0 	0 	0 	0 	0 	0 	0 	1 	3 	1 	0 	0 	0 	0 	0 	0 	0 	0 	0 	0 	0 	0 	0 	0 	0 	0 	0 	0 	0 	0 	0 	
maximum concurrent accesses to same row:
dram[0]:         1         1         0         0         0         0         0         0         0         0         0         0         0         0         0         0 
dram[1]:         0         0         0         0         0         0         0         0         0         0         0         0         0         0         0         0 
dram[2]:         0         0         0         0         0         0         0         0         0         0         0         0         0         0         0         0 
dram[3]:         0         0         0         0         0         0         0         0         0         0         0         0         0         0         0         0 
dram[4]:         0         0         0         0         0         0         0         0         0         0         0         0         0         0         0         0 
dram[5]:         0         0         0         0         0         0         0         0         0         0         0         0         0         0         0         0 
dram[6]:         0         0         0         0         0         0         0         0         0         0         0         0         0         0         0         0 
dram[7]:         0         0         0         0         0         0         0         0         0         0         0         0         0         0         0         0 
maximum service time to same row:
dram[0]:       816       674      1056      1054      1070      1067      1248      1243      1360      1349      1325      1320      1387      1377      1458      1448 
dram[1]:      1004      1000      1017      1015      1030      1028      1195      1176      1247      1242      1318      1308      1352      1342      1423      1413 
dram[2]:      1010      1007      1024      1021      1037      1035      1151      1148      1164      1159      1236      1225      1298      1292      1269      1264 
dram[3]:      1017      1013      1030      1028      1044      1041      1155      1152      1170      1166      1227      1208      1335      1326      1345      1336 
dram[4]:      1023      1020      1037      1035      1051      1048      1186      1181      1196      1192      1277      1277      1377      1376      1357      1357 
dram[5]:      1030      1027      1044      1041      1056      1054      1193      1188      1202      1198      1254      1245      1430      1421      1458      1449 
dram[6]:      1069      1066      1082      1080      1096      1093      1207      1202      1234      1228      1222      1217      1307      1278      1259      1250 
dram[7]:      1037      1034      1051      1048      1063      1061      1183      1180      1196      1193      1190      1187      1398      1379      1203      1200 
average row accesses per activate:
dram[0]: 16.500000 16.500000 32.000000 32.000000 32.000000 32.000000 32.000000 32.000000 32.000000 32.000000 32.000000 32.000000 32.000000 32.000000 16.000000 16.000000 
dram[1]: 32.000000 32.000000 32.000000 32.000000 32.000000 32.000000 32.000000 32.000000 32.000000 32.000000 32.000000 32.000000 32.000000 32.000000 16.000000 16.000000 
dram[2]: 32.000000 32.000000 32.000000 32.000000 32.000000 32.000000 32.000000 32.000000 32.000000 32.000000 32.000000 32.000000 32.000000 32.000000 16.000000 16.000000 
dram[3]: 32.000000 32.000000 32.000000 32.000000 32.000000 32.000000 32.000000 32.000000 32.000000 32.000000 32.000000 32.000000 32.000000 32.000000 16.000000 16.000000 
dram[4]: 32.000000 32.000000 32.000000 32.000000 32.000000 32.000000 32.000000 32.000000 32.000000 32.000000 32.000000 32.000000 32.000000 32.000000 16.000000 16.000000 
dram[5]: 32.000000 32.000000 32.000000 32.000000 32.000000 32.000000 32.000000 32.000000 32.000000 32.000000 32.000000 32.000000 32.000000 32.000000 16.000000 16.000000 
dram[6]: 32.000000 32.000000 32.000000 32.000000 32.000000 32.000000 32.000000 32.000000 32.000000 32.000000 32.000000 32.000000 32.000000 32.000000 16.000000 16.000000 
dram[7]: 32.000000 32.000000 32.000000 32.000000 32.000000 32.000000 32.000000 32.000000 32.000000 32.000000 32.000000 32.000000 32.000000 32.000000 16.000000 16.000000 
average row locality = 3842/130 = 29.553846
number of total memory accesses made:
dram[0]:         0         0         0         0         0         0         0         0         0         0         0         0         0         0         0         0 
dram[1]:         0         0         0         0         0         0         0         0         0         0         0         0         0         0         0         0 
dram[2]:         0         0         0         0         0         0         0         0         0         0         0         0         0         0         0         0 
dram[3]:         0         0         0         0         0         0         0         0         0         0         0         0         0         0         0         0 
dram[4]:         0         0         0         0         0         0         0         0         0         0         0         0         0         0         0         0 
dram[5]:         0         0         0         0         0         0         0         0         0         0         0         0         0         0         0         0 
dram[6]:         0         0         0         0         0         0         0         0         0         0         0         0         0         0         0         0 
dram[7]:         0         0         0         0         0         0         0         0         0         0         0         0         0         0         0         0 
total accesses: 0
min_bank_accesses = 0!
min_chip_accesses = 0!
number of total read accesses:
dram[0]:        68        68        64        64        64        64        64        64        64        64        64        64        64        64        32        32 
dram[1]:        64        64        64        64        64        64        64        64        64        64        64        64        64        64        32        32 
dram[2]:        64        64        64        64        64        64        64        64        64        64        64        64        64        64        32        32 
dram[3]:        64        64        64        64        64        64        64        64        64        64        64        64        64        64        32        32 
dram[4]:        64        64        64        64        64        64        64        64        64        64        64        64        64        64        32        32 
dram[5]:        64        64        64        64        64        64        64        64        64        64        64        64        64        64        32        32 
dram[6]:        64        64        64        64        64        64        64        64        64        64        64        64        64        64        32        32 
dram[7]:        64        64        64        64        64        64        64        64        64        64        64        64        64        64        32        32 
total dram reads = 7688
bank skew: 68/32 = 2.12
chip skew: 968/960 = 1.01
number of total write accesses:
dram[0]:        64        64        64        64        64        64        64        64        64        64        64        64        64        64        32        32 
dram[1]:        64        64        64        64        64        64        64        64        64        64        64        64        64        64        32        32 
dram[2]:        64        64        64        64        64        64        64        64        64        64        64        64        64        64        32        32 
dram[3]:        64        64        64        64        64        64        64        64        64        64        64        64        64        64        32        32 
dram[4]:        64        64        64        64        64        64        64        64        64        64        64        64        64        64        32        32 
dram[5]:        64        64        64        64        64        64        64        64        64        64        64        64        64        64        32        32 
dram[6]:        64        64        64        64        64        64        64        64        64        64        64        64        64        64        32        32 
dram[7]:        64        64        64        64        64        64        64        64        64        64        64        64        64        64        32        32 
total dram writes = 7680
bank skew: 64/32 = 2.00
chip skew: 960/960 = 1.00
average mf latency per bank:
dram[0]:        107       106        95        95        90        93       138       142       131       134       147       150       140       143       102       106
dram[1]:        107       107       105       105        99       100       136       119       130       131       162       162       139       139       104       110
dram[2]:         90        91        82        86        79        79       114       114        93        95       126       126       117       117        74        73
dram[3]:        112       112        90        91        99       100       119       119       108       110       146       130       118       120        81        82
dram[4]:        103       104        85        86        74        76       104       105        96        95       114       115       118       119        83        84
dram[5]:        113       112        82        82        90        91       106       106        95        96       127       129       121       122        89        82
dram[6]:        103       104       110       109        80        81       118       118        90        90       114       114       117       101        77        76
dram[7]:         93        94        84        85        75        75       101       102        91        92       111       111       120       103        68        68
maximum mf latency per bank:
dram[0]:       1555      1565      1264      1273      1094      1103      1627      1661      1379      1387      1679      1689      1649      1696       978      1081
dram[1]:       1351      1360      1455      1463      1271      1282      1572      1428      1564      1579      1823      1833      1573      1507      1053      1273
dram[2]:       1133      1142      1059      1068       907       915      1344      1348      1112      1121      1500      1508      1246      1328       819       706
dram[3]:       1396      1403      1080      1088      1241      1249      1417      1424      1203      1210      1576      1497      1256      1301       879       887
dram[4]:       1329      1343      1160      1169       939       947      1269      1277      1169      1180      1193      1202      1335      1349       854       862
dram[5]:       1323      1333      1172      1181      1030      1038      1179      1187      1106      1114      1349      1412      1260      1202       958       807
dram[6]:       1287      1299      1547      1568       967      1129      1317      1325      1088      1097      1293      1304      1254      1106       799       807
dram[7]:       1074      1087      1140      1148       887       895      1056      1061      1090      1098      1185      1194      1255      1110       736       745
Memory Partition 0: 
Cache L2_bank_000:
MSHR contents

Cache L2_bank_001:
MSHR contents

In Dram Latency Queue (total = 0): 
DRAM[0]: 16 bks, busW=4 BL=8 CL=12, tRRD=6 tCCD=2, tRCD=12 tRAS=28 tRP=12 tRC=40
n_cmd=6038 n_nop=4090 n_act=18 n_pre=2 n_ref_event=0 n_req=482 n_rd=8 n_rd_L2_A=960 n_write=960 n_wr_bk=0 bw_util=0.6386
n_activity=4322 dram_eff=0.8922
bk0: 68a 2560i bk1: 68a 2545i bk2: 64a 2606i bk3: 64a 2876i bk4: 64a 3081i bk5: 64a 3033i bk6: 64a 2310i bk7: 64a 2358i bk8: 64a 2428i bk9: 64a 2401i bk10: 64a 2351i bk11: 64a 2335i bk12: 64a 2545i bk13: 64a 2513i bk14: 32a 4166i bk15: 32a 4120i 

------------------------------------------------------------------------

Row_Buffer_Locality = 0.962656
Row_Buffer_Locality_read = 0.991736
Row_Buffer_Locality_write = 0.933333
Bank_Level_Parallism = 12.378778
Bank_Level_Parallism_Col = 12.409732
Bank_Level_Parallism_Ready = 6.826335
write_to_read_ratio_blp_rw_average = 0.478295
GrpLevelPara = 1.000000 

BW Util details:
bwutil = 0.638622 
total_CMD = 6038 
util_bw = 3856 
Wasted_Col = 404 
Wasted_Row = 12 
Idle = 1766 

BW Util Bottlenecks: 
RCDc_limit = 24 
RCDWRc_limit = 18 
WTRc_limit = 2168 
RTWc_limit = 2140 
CCDLc_limit = 0 
rwq = 0 
CCDLc_limit_alone = 0 
WTRc_limit_alone = 2168 
RTWc_limit_alone = 2140 

Commands details: 
total_CMD = 6038 
n_nop = 4090 
Read = 8 
Write = 960 
L2_Alloc = 960 
L2_WB = 0 
n_act = 18 
n_pre = 2 
n_ref = 0 
n_req = 482 
total_req = 1928 

Dual Bus Interface Util: 
issued_total_row = 20 
issued_total_col = 1928 
Row_Bus_Util =  0.003312 
CoL_Bus_Util = 0.319311 
Either_Row_CoL_Bus_Util = 0.322623 
Issued_on_Two_Bus_Simul_Util = 0.000000 
issued_two_Eff = 0.000000 
queue_avg = 39.937065 


dram_util_bins: 0 0 0 0 0 0 0 0 0 0
dram_eff_bins: 0 0 0 0 0 0 0 0 0 0
mrqq: max=64 avg=39.9371
Memory Partition 1: 
Cache L2_bank_002:
MSHR contents

Cache L2_bank_003:
MSHR contents

In Dram Latency Queue (total = 0): 
DRAM[1]: 16 bks, busW=4 BL=8 CL=12, tRRD=6 tCCD=2, tRCD=12 tRAS=28 tRP=12 tRC=40
n_cmd=6038 n_nop=4102 n_act=16 n_pre=0 n_ref_event=0 n_req=480 n_rd=0 n_rd_L2_A=960 n_write=960 n_wr_bk=0 bw_util=0.636
n_activity=4249 dram_eff=0.9037
bk0: 64a 2443i bk1: 64a 2428i bk2: 64a 2498i bk3: 64a 2446i bk4: 64a 2513i bk5: 64a 2468i bk6: 64a 2271i bk7: 64a 2403i bk8: 64a 2352i bk9: 64a 2335i bk10: 64a 2396i bk11: 64a 2372i bk12: 64a 2438i bk13: 64a 2413i bk14: 32a 4292i bk15: 32a 4172i 

------------------------------------------------------------------------

Row_Buffer_Locality = 0.966667
Row_Buffer_Locality_read = 1.000000
Row_Buffer_Locality_write = 0.933333
Bank_Level_Parallism = 12.934875
Bank_Level_Parallism_Col = 12.931319
Bank_Level_Parallism_Ready = 7.090057
write_to_read_ratio_blp_rw_average = 0.487853
GrpLevelPara = 1.000000 

BW Util details:
bwutil = 0.635972 
total_CMD = 6038 
util_bw = 3840 
Wasted_Col = 399 
Wasted_Row = 0 
Idle = 1799 

BW Util Bottlenecks: 
RCDc_limit = 0 
RCDWRc_limit = 30 
WTRc_limit = 2233 
RTWc_limit = 2240 
CCDLc_limit = 0 
rwq = 0 
CCDLc_limit_alone = 0 
WTRc_limit_alone = 2233 
RTWc_limit_alone = 2240 

Commands details: 
total_CMD = 6038 
n_nop = 4102 
Read = 0 
Write = 960 
L2_Alloc = 960 
L2_WB = 0 
n_act = 16 
n_pre = 0 
n_ref = 0 
n_req = 480 
total_req = 1920 

Dual Bus Interface Util: 
issued_total_row = 16 
issued_total_col = 1920 
Row_Bus_Util =  0.002650 
CoL_Bus_Util = 0.317986 
Either_Row_CoL_Bus_Util = 0.320636 
Issued_on_Two_Bus_Simul_Util = 0.000000 
issued_two_Eff = 0.000000 
queue_avg = 40.011429 


dram_util_bins: 0 0 0 0 0 0 0 0 0 0
dram_eff_bins: 0 0 0 0 0 0 0 0 0 0
mrqq: max=64 avg=40.0114
Memory Partition 2: 
Cache L2_bank_004:
MSHR contents

Cache L2_bank_005:
MSHR contents

In Dram Latency Queue (total = 0): 
DRAM[2]: 16 bks, busW=4 BL=8 CL=12, tRRD=6 tCCD=2, tRCD=12 tRAS=28 tRP=12 tRC=40
n_cmd=6038 n_nop=4103 n_act=16 n_pre=0 n_ref_event=0 n_req=480 n_rd=0 n_rd_L2_A=960 n_write=960 n_wr_bk=0 bw_util=0.636
n_activity=4223 dram_eff=0.9093
bk0: 64a 2368i bk1: 64a 2355i bk2: 64a 2383i bk3: 64a 2362i bk4: 64a 2376i bk5: 64a 2347i bk6: 64a 2243i bk7: 64a 2229i bk8: 64a 2247i bk9: 64a 2232i bk10: 64a 2272i bk11: 64a 2246i bk12: 64a 2363i bk13: 64a 2344i bk14: 32a 4292i bk15: 32a 4509i 

------------------------------------------------------------------------

Row_Buffer_Locality = 0.966667
Row_Buffer_Locality_read = 1.000000
Row_Buffer_Locality_write = 0.933333
Bank_Level_Parallism = 13.273742
Bank_Level_Parallism_Col = 13.270245
Bank_Level_Parallism_Ready = 7.260938
write_to_read_ratio_blp_rw_average = 0.483136
GrpLevelPara = 1.000000 

BW Util details:
bwutil = 0.635972 
total_CMD = 6038 
util_bw = 3840 
Wasted_Col = 373 
Wasted_Row = 0 
Idle = 1825 

BW Util Bottlenecks: 
RCDc_limit = 0 
RCDWRc_limit = 35 
WTRc_limit = 2197 
RTWc_limit = 2205 
CCDLc_limit = 0 
rwq = 0 
CCDLc_limit_alone = 0 
WTRc_limit_alone = 2197 
RTWc_limit_alone = 2205 

Commands details: 
total_CMD = 6038 
n_nop = 4103 
Read = 0 
Write = 960 
L2_Alloc = 960 
L2_WB = 0 
n_act = 16 
n_pre = 0 
n_ref = 0 
n_req = 480 
total_req = 1920 

Dual Bus Interface Util: 
issued_total_row = 16 
issued_total_col = 1920 
Row_Bus_Util =  0.002650 
CoL_Bus_Util = 0.317986 
Either_Row_CoL_Bus_Util = 0.320470 
Issued_on_Two_Bus_Simul_Util = 0.000166 
issued_two_Eff = 0.000517 
queue_avg = 39.585461 


dram_util_bins: 0 0 0 0 0 0 0 0 0 0
dram_eff_bins: 0 0 0 0 0 0 0 0 0 0
mrqq: max=64 avg=39.5855
Memory Partition 3: 
Cache L2_bank_006:
MSHR contents

Cache L2_bank_007:
MSHR contents

In Dram Latency Queue (total = 0): 
DRAM[3]: 16 bks, busW=4 BL=8 CL=12, tRRD=6 tCCD=2, tRCD=12 tRAS=28 tRP=12 tRC=40
n_cmd=6038 n_nop=4103 n_act=16 n_pre=0 n_ref_event=0 n_req=480 n_rd=0 n_rd_L2_A=960 n_write=960 n_wr_bk=0 bw_util=0.636
n_activity=4233 dram_eff=0.9072
bk0: 64a 2312i bk1: 64a 2297i bk2: 64a 2426i bk3: 64a 2389i bk4: 64a 2324i bk5: 64a 2313i bk6: 64a 2205i bk7: 64a 2192i bk8: 64a 2214i bk9: 64a 2199i bk10: 64a 2229i bk11: 64a 2304i bk12: 64a 2406i bk13: 64a 2381i bk14: 32a 4887i bk15: 32a 4785i 

------------------------------------------------------------------------

Row_Buffer_Locality = 0.966667
Row_Buffer_Locality_read = 1.000000
Row_Buffer_Locality_write = 0.933333
Bank_Level_Parallism = 13.076267
Bank_Level_Parallism_Col = 13.072495
Bank_Level_Parallism_Ready = 7.075403
write_to_read_ratio_blp_rw_average = 0.477654
GrpLevelPara = 1.000000 

BW Util details:
bwutil = 0.635972 
total_CMD = 6038 
util_bw = 3840 
Wasted_Col = 383 
Wasted_Row = 0 
Idle = 1815 

BW Util Bottlenecks: 
RCDc_limit = 0 
RCDWRc_limit = 42 
WTRc_limit = 2291 
RTWc_limit = 2149 
CCDLc_limit = 0 
rwq = 0 
CCDLc_limit_alone = 0 
WTRc_limit_alone = 2291 
RTWc_limit_alone = 2149 

Commands details: 
total_CMD = 6038 
n_nop = 4103 
Read = 0 
Write = 960 
L2_Alloc = 960 
L2_WB = 0 
n_act = 16 
n_pre = 0 
n_ref = 0 
n_req = 480 
total_req = 1920 

Dual Bus Interface Util: 
issued_total_row = 16 
issued_total_col = 1920 
Row_Bus_Util =  0.002650 
CoL_Bus_Util = 0.317986 
Either_Row_CoL_Bus_Util = 0.320470 
Issued_on_Two_Bus_Simul_Util = 0.000166 
issued_two_Eff = 0.000517 
queue_avg = 39.515732 


dram_util_bins: 0 0 0 0 0 0 0 0 0 0
dram_eff_bins: 0 0 0 0 0 0 0 0 0 0
mrqq: max=64 avg=39.5157
Memory Partition 4: 
Cache L2_bank_008:
MSHR contents

Cache L2_bank_009:
MSHR contents

In Dram Latency Queue (total = 0): 
DRAM[4]: 16 bks, busW=4 BL=8 CL=12, tRRD=6 tCCD=2, tRCD=12 tRAS=28 tRP=12 tRC=40
n_cmd=6038 n_nop=4104 n_act=16 n_pre=0 n_ref_event=0 n_req=480 n_rd=0 n_rd_L2_A=960 n_write=960 n_wr_bk=0 bw_util=0.636
n_activity=4242 dram_eff=0.9052
bk0: 64a 2400i bk1: 64a 2387i bk2: 64a 2407i bk3: 64a 2396i bk4: 64a 2554i bk5: 64a 2577i bk6: 64a 2336i bk7: 64a 2320i bk8: 64a 2338i bk9: 64a 2363i bk10: 64a 2359i bk11: 64a 2351i bk12: 64a 2449i bk13: 64a 2456i bk14: 32a 4158i bk15: 32a 4135i 

------------------------------------------------------------------------

Row_Buffer_Locality = 0.966667
Row_Buffer_Locality_read = 1.000000
Row_Buffer_Locality_write = 0.933333
Bank_Level_Parallism = 13.020562
Bank_Level_Parallism_Col = 13.014184
Bank_Level_Parallism_Ready = 7.127083
write_to_read_ratio_blp_rw_average = 0.486894
GrpLevelPara = 1.000000 

BW Util details:
bwutil = 0.635972 
total_CMD = 6038 
util_bw = 3840 
Wasted_Col = 392 
Wasted_Row = 0 
Idle = 1806 

BW Util Bottlenecks: 
RCDc_limit = 0 
RCDWRc_limit = 24 
WTRc_limit = 2202 
RTWc_limit = 2221 
CCDLc_limit = 0 
rwq = 0 
CCDLc_limit_alone = 0 
WTRc_limit_alone = 2202 
RTWc_limit_alone = 2221 

Commands details: 
total_CMD = 6038 
n_nop = 4104 
Read = 0 
Write = 960 
L2_Alloc = 960 
L2_WB = 0 
n_act = 16 
n_pre = 0 
n_ref = 0 
n_req = 480 
total_req = 1920 

Dual Bus Interface Util: 
issued_total_row = 16 
issued_total_col = 1920 
Row_Bus_Util =  0.002650 
CoL_Bus_Util = 0.317986 
Either_Row_CoL_Bus_Util = 0.320305 
Issued_on_Two_Bus_Simul_Util = 0.000331 
issued_two_Eff = 0.001034 
queue_avg = 39.880756 


dram_util_bins: 0 0 0 0 0 0 0 0 0 0
dram_eff_bins: 0 0 0 0 0 0 0 0 0 0
mrqq: max=64 avg=39.8808
Memory Partition 5: 
Cache L2_bank_010:
MSHR contents

Cache L2_bank_011:
MSHR contents

In Dram Latency Queue (total = 0): 
DRAM[5]: 16 bks, busW=4 BL=8 CL=12, tRRD=6 tCCD=2, tRCD=12 tRAS=28 tRP=12 tRC=40
n_cmd=6038 n_nop=4104 n_act=16 n_pre=0 n_ref_event=0 n_req=480 n_rd=0 n_rd_L2_A=960 n_write=960 n_wr_bk=0 bw_util=0.636
n_activity=4242 dram_eff=0.9052
bk0: 64a 2289i bk1: 64a 2275i bk2: 64a 2648i bk3: 64a 2772i bk4: 64a 2429i bk5: 64a 2418i bk6: 64a 2396i bk7: 64a 2340i bk8: 64a 2459i bk9: 64a 2381i bk10: 64a 2277i bk11: 64a 2285i bk12: 64a 2535i bk13: 64a 2511i bk14: 32a 3917i bk15: 32a 4474i 

------------------------------------------------------------------------

Row_Buffer_Locality = 0.966667
Row_Buffer_Locality_read = 1.000000
Row_Buffer_Locality_write = 0.933333
Bank_Level_Parallism = 12.918932
Bank_Level_Parallism_Col = 12.915366
Bank_Level_Parallism_Ready = 7.055208
write_to_read_ratio_blp_rw_average = 0.479998
GrpLevelPara = 1.000000 

BW Util details:
bwutil = 0.635972 
total_CMD = 6038 
util_bw = 3840 
Wasted_Col = 392 
Wasted_Row = 0 
Idle = 1806 

BW Util Bottlenecks: 
RCDc_limit = 0 
RCDWRc_limit = 23 
WTRc_limit = 2184 
RTWc_limit = 2150 
CCDLc_limit = 0 
rwq = 0 
CCDLc_limit_alone = 0 
WTRc_limit_alone = 2184 
RTWc_limit_alone = 2150 

Commands details: 
total_CMD = 6038 
n_nop = 4104 
Read = 0 
Write = 960 
L2_Alloc = 960 
L2_WB = 0 
n_act = 16 
n_pre = 0 
n_ref = 0 
n_req = 480 
total_req = 1920 

Dual Bus Interface Util: 
issued_total_row = 16 
issued_total_col = 1920 
Row_Bus_Util =  0.002650 
CoL_Bus_Util = 0.317986 
Either_Row_CoL_Bus_Util = 0.320305 
Issued_on_Two_Bus_Simul_Util = 0.000331 
issued_two_Eff = 0.001034 
queue_avg = 39.697418 


dram_util_bins: 0 0 0 0 0 0 0 0 0 0
dram_eff_bins: 0 0 0 0 0 0 0 0 0 0
mrqq: max=64 avg=39.6974
Memory Partition 6: 
Cache L2_bank_012:
MSHR contents
MSHR: tag=0xf5537e00, atomic=0 1 entries : 0x559eb35ca3f0 :  mf: uid=  7675, sid07:w30, part=6, addr=0x7feef5537e00, load , size=128, unknown  status = IN_PARTITION_DRAM (3528), 

Cache L2_bank_013:
MSHR contents

In Dram Latency Queue (total = 0): 
DRAM[6]: 16 bks, busW=4 BL=8 CL=12, tRRD=6 tCCD=2, tRCD=12 tRAS=28 tRP=12 tRC=40
n_cmd=6038 n_nop=4106 n_act=16 n_pre=0 n_ref_event=0 n_req=480 n_rd=0 n_rd_L2_A=958 n_write=960 n_wr_bk=0 bw_util=0.6353
n_activity=4214 dram_eff=0.9103
bk0: 64a 2203i bk1: 64a 2190i bk2: 64a 2208i bk3: 64a 2325i bk4: 64a 2469i bk5: 64a 2439i bk6: 64a 2182i bk7: 64a 2167i bk8: 64a 2281i bk9: 64a 2246i bk10: 64a 2287i bk11: 64a 2261i bk12: 62a 2265i bk13: 64a 2314i bk14: 32a 4449i bk15: 32a 4509i 

------------------------------------------------------------------------

Row_Buffer_Locality = 0.966667
Row_Buffer_Locality_read = 1.000000
Row_Buffer_Locality_write = 0.933333
Bank_Level_Parallism = 13.356668
Bank_Level_Parallism_Col = 13.353905
Bank_Level_Parallism_Ready = 7.317518
write_to_read_ratio_blp_rw_average = 0.478746
GrpLevelPara = 1.000000 

BW Util details:
bwutil = 0.635310 
total_CMD = 6038 
util_bw = 3836 
Wasted_Col = 378 
Wasted_Row = 0 
Idle = 1824 

BW Util Bottlenecks: 
RCDc_limit = 0 
RCDWRc_limit = 37 
WTRc_limit = 2287 
RTWc_limit = 2170 
CCDLc_limit = 0 
rwq = 0 
CCDLc_limit_alone = 0 
WTRc_limit_alone = 2287 
RTWc_limit_alone = 2170 

Commands details: 
total_CMD = 6038 
n_nop = 4106 
Read = 0 
Write = 960 
L2_Alloc = 958 
L2_WB = 0 
n_act = 16 
n_pre = 0 
n_ref = 0 
n_req = 480 
total_req = 1918 

Dual Bus Interface Util: 
issued_total_row = 16 
issued_total_col = 1918 
Row_Bus_Util =  0.002650 
CoL_Bus_Util = 0.317655 
Either_Row_CoL_Bus_Util = 0.319973 
Issued_on_Two_Bus_Simul_Util = 0.000331 
issued_two_Eff = 0.001035 
queue_avg = 39.664791 


dram_util_bins: 0 0 0 0 0 0 0 0 0 0
dram_eff_bins: 0 0 0 0 0 0 0 0 0 0
mrqq: max=64 avg=39.6648
Memory Partition 7: 
Cache L2_bank_014:
MSHR contents

Cache L2_bank_015:
MSHR contents

In Dram Latency Queue (total = 0): 
DRAM[7]: 16 bks, busW=4 BL=8 CL=12, tRRD=6 tCCD=2, tRCD=12 tRAS=28 tRP=12 tRC=40
n_cmd=6038 n_nop=4102 n_act=16 n_pre=0 n_ref_event=0 n_req=480 n_rd=0 n_rd_L2_A=960 n_write=960 n_wr_bk=0 bw_util=0.636
n_activity=4249 dram_eff=0.9037
bk0: 64a 2265i bk1: 64a 2252i bk2: 64a 2405i bk3: 64a 2433i bk4: 64a 2320i bk5: 64a 2300i bk6: 64a 2174i bk7: 64a 2225i bk8: 64a 2254i bk9: 64a 2232i bk10: 64a 2219i bk11: 64a 2205i bk12: 64a 2457i bk13: 64a 2629i bk14: 32a 4615i bk15: 32a 4533i 

------------------------------------------------------------------------

Row_Buffer_Locality = 0.966667
Row_Buffer_Locality_read = 1.000000
Row_Buffer_Locality_write = 0.933333
Bank_Level_Parallism = 13.111609
Bank_Level_Parallism_Col = 13.107151
Bank_Level_Parallism_Ready = 7.260938
write_to_read_ratio_blp_rw_average = 0.486015
GrpLevelPara = 1.000000 

BW Util details:
bwutil = 0.635972 
total_CMD = 6038 
util_bw = 3840 
Wasted_Col = 399 
Wasted_Row = 0 
Idle = 1799 

BW Util Bottlenecks: 
RCDc_limit = 0 
RCDWRc_limit = 32 
WTRc_limit = 2279 
RTWc_limit = 2141 
CCDLc_limit = 0 
rwq = 0 
CCDLc_limit_alone = 0 
WTRc_limit_alone = 2279 
RTWc_limit_alone = 2141 

Commands details: 
total_CMD = 6038 
n_nop = 4102 
Read = 0 
Write = 960 
L2_Alloc = 960 
L2_WB = 0 
n_act = 16 
n_pre = 0 
n_ref = 0 
n_req = 480 
total_req = 1920 

Dual Bus Interface Util: 
issued_total_row = 16 
issued_total_col = 1920 
Row_Bus_Util =  0.002650 
CoL_Bus_Util = 0.317986 
Either_Row_CoL_Bus_Util = 0.320636 
Issued_on_Two_Bus_Simul_Util = 0.000000 
issued_two_Eff = 0.000000 
queue_avg = 39.082973 


dram_util_bins: 0 0 0 0 0 0 0 0 0 0
dram_eff_bins: 0 0 0 0 0 0 0 0 0 0
mrqq: max=64 avg=39.083

========= L2 cache stats =========
L2_cache_bank[0]: Access = 130, Miss = 121, Miss_rate = 0.931, Pending_hits = 9, Reservation_fails = 3
L2_cache_bank[1]: Access = 130, Miss = 121, Miss_rate = 0.931, Pending_hits = 9, Reservation_fails = 4
L2_cache_bank[2]: Access = 120, Miss = 120, Miss_rate = 1.000, Pending_hits = 0, Reservation_fails = 1
L2_cache_bank[3]: Access = 120, Miss = 120, Miss_rate = 1.000, Pending_hits = 0, Reservation_fails = 1
L2_cache_bank[4]: Access = 120, Miss = 120, Miss_rate = 1.000, Pending_hits = 0, Reservation_fails = 0
L2_cache_bank[5]: Access = 120, Miss = 120, Miss_rate = 1.000, Pending_hits = 0, Reservation_fails = 0
L2_cache_bank[6]: Access = 120, Miss = 120, Miss_rate = 1.000, Pending_hits = 0, Reservation_fails = 0
L2_cache_bank[7]: Access = 120, Miss = 120, Miss_rate = 1.000, Pending_hits = 0, Reservation_fails = 1
L2_cache_bank[8]: Access = 120, Miss = 120, Miss_rate = 1.000, Pending_hits = 0, Reservation_fails = 6
L2_cache_bank[9]: Access = 120, Miss = 120, Miss_rate = 1.000, Pending_hits = 0, Reservation_fails = 9
L2_cache_bank[10]: Access = 120, Miss = 120, Miss_rate = 1.000, Pending_hits = 0, Reservation_fails = 2
L2_cache_bank[11]: Access = 120, Miss = 120, Miss_rate = 1.000, Pending_hits = 0, Reservation_fails = 2
L2_cache_bank[12]: Access = 120, Miss = 120, Miss_rate = 1.000, Pending_hits = 0, Reservation_fails = 2
L2_cache_bank[13]: Access = 120, Miss = 120, Miss_rate = 1.000, Pending_hits = 0, Reservation_fails = 2
L2_cache_bank[14]: Access = 120, Miss = 120, Miss_rate = 1.000, Pending_hits = 0, Reservation_fails = 0
L2_cache_bank[15]: Access = 120, Miss = 120, Miss_rate = 1.000, Pending_hits = 0, Reservation_fails = 0
L2_total_cache_accesses = 1940
L2_total_cache_misses = 1922
L2_total_cache_miss_rate = 0.9907
L2_total_cache_pending_hits = 18
L2_total_cache_reservation_fails = 33
L2_total_cache_breakdown:
	L2_cache_stats_breakdown[GLOBAL_ACC_R][HIT] = 0
	L2_cache_stats_breakdown[GLOBAL_ACC_R][HIT_RESERVED] = 0
	L2_cache_stats_breakdown[GLOBAL_ACC_R][MISS] = 0
	L2_cache_stats_breakdown[GLOBAL_ACC_R][RESERVATION_FAIL] = 0
	L2_cache_stats_breakdown[GLOBAL_ACC_R][SECTOR_MISS] = 0
	L2_cache_stats_breakdown[GLOBAL_ACC_R][MSHR_HIT] = 0
	L2_cache_stats_breakdown[LOCAL_ACC_R][HIT] = 0
	L2_cache_stats_breakdown[LOCAL_ACC_R][HIT_RESERVED] = 0
	L2_cache_stats_breakdown[LOCAL_ACC_R][MISS] = 0
	L2_cache_stats_breakdown[LOCAL_ACC_R][RESERVATION_FAIL] = 0
	L2_cache_stats_breakdown[LOCAL_ACC_R][SECTOR_MISS] = 0
	L2_cache_stats_breakdown[LOCAL_ACC_R][MSHR_HIT] = 0
	L2_cache_stats_breakdown[CONST_ACC_R][HIT] = 0
	L2_cache_stats_breakdown[CONST_ACC_R][HIT_RESERVED] = 0
	L2_cache_stats_breakdown[CONST_ACC_R][MISS] = 0
	L2_cache_stats_breakdown[CONST_ACC_R][RESERVATION_FAIL] = 0
	L2_cache_stats_breakdown[CONST_ACC_R][SECTOR_MISS] = 0
	L2_cache_stats_breakdown[CONST_ACC_R][MSHR_HIT] = 0
	L2_cache_stats_breakdown[TEXTURE_ACC_R][HIT] = 0
	L2_cache_stats_breakdown[TEXTURE_ACC_R][HIT_RESERVED] = 0
	L2_cache_stats_breakdown[TEXTURE_ACC_R][MISS] = 0
	L2_cache_stats_breakdown[TEXTURE_ACC_R][RESERVATION_FAIL] = 0
	L2_cache_stats_breakdown[TEXTURE_ACC_R][SECTOR_MISS] = 0
	L2_cache_stats_breakdown[TEXTURE_ACC_R][MSHR_HIT] = 0
	L2_cache_stats_breakdown[GLOBAL_ACC_W][HIT] = 0
	L2_cache_stats_breakdown[GLOBAL_ACC_W][HIT_RESERVED] = 0
	L2_cache_stats_breakdown[GLOBAL_ACC_W][MISS] = 1920
	L2_cache_stats_breakdown[GLOBAL_ACC_W][RESERVATION_FAIL] = 33
	L2_cache_stats_breakdown[GLOBAL_ACC_W][SECTOR_MISS] = 0
	L2_cache_stats_breakdown[GLOBAL_ACC_W][MSHR_HIT] = 0
	L2_cache_stats_breakdown[LOCAL_ACC_W][HIT] = 0
	L2_cache_stats_breakdown[LOCAL_ACC_W][HIT_RESERVED] = 0
	L2_cache_stats_breakdown[LOCAL_ACC_W][MISS] = 0
	L2_cache_stats_breakdown[LOCAL_ACC_W][RESERVATION_FAIL] = 0
	L2_cache_stats_breakdown[LOCAL_ACC_W][SECTOR_MISS] = 0
	L2_cache_stats_breakdown[LOCAL_ACC_W][MSHR_HIT] = 0
	L2_cache_stats_breakdown[L1_WRBK_ACC][HIT] = 0
	L2_cache_stats_breakdown[L1_WRBK_ACC][HIT_RESERVED] = 0
	L2_cache_stats_breakdown[L1_WRBK_ACC][MISS] = 0
	L2_cache_stats_breakdown[L1_WRBK_ACC][RESERVATION_FAIL] = 0
	L2_cache_stats_breakdown[L1_WRBK_ACC][SECTOR_MISS] = 0
	L2_cache_stats_breakdown[L1_WRBK_ACC][MSHR_HIT] = 0
	L2_cache_stats_breakdown[L2_WRBK_ACC][HIT] = 0
	L2_cache_stats_breakdown[L2_WRBK_ACC][HIT_RESERVED] = 0
	L2_cache_stats_breakdown[L2_WRBK_ACC][MISS] = 0
	L2_cache_stats_breakdown[L2_WRBK_ACC][RESERVATION_FAIL] = 0
	L2_cache_stats_breakdown[L2_WRBK_ACC][SECTOR_MISS] = 0
	L2_cache_stats_breakdown[L2_WRBK_ACC][MSHR_HIT] = 0
	L2_cache_stats_breakdown[INST_ACC_R][HIT] = 0
	L2_cache_stats_breakdown[INST_ACC_R][HIT_RESERVED] = 18
	L2_cache_stats_breakdown[INST_ACC_R][MISS] = 2
	L2_cache_stats_breakdown[INST_ACC_R][RESERVATION_FAIL] = 0
	L2_cache_stats_breakdown[INST_ACC_R][SECTOR_MISS] = 0
	L2_cache_stats_breakdown[INST_ACC_R][MSHR_HIT] = 18
	L2_cache_stats_breakdown[L1_WR_ALLOC_R][HIT] = 0
	L2_cache_stats_breakdown[L1_WR_ALLOC_R][HIT_RESERVED] = 0
	L2_cache_stats_breakdown[L1_WR_ALLOC_R][MISS] = 0
	L2_cache_stats_breakdown[L1_WR_ALLOC_R][RESERVATION_FAIL] = 0
	L2_cache_stats_breakdown[L1_WR_ALLOC_R][SECTOR_MISS] = 0
	L2_cache_stats_breakdown[L1_WR_ALLOC_R][MSHR_HIT] = 0
	L2_cache_stats_breakdown[L2_WR_ALLOC_R][HIT] = 0
	L2_cache_stats_breakdown[L2_WR_ALLOC_R][HIT_RESERVED] = 0
	L2_cache_stats_breakdown[L2_WR_ALLOC_R][MISS] = 0
	L2_cache_stats_breakdown[L2_WR_ALLOC_R][RESERVATION_FAIL] = 0
	L2_cache_stats_breakdown[L2_WR_ALLOC_R][SECTOR_MISS] = 0
	L2_cache_stats_breakdown[L2_WR_ALLOC_R][MSHR_HIT] = 0
	L2_cache_stats_breakdown[GLOBAL_ACC_W][TOTAL_ACCESS] = 1920
	L2_cache_stats_breakdown[INST_ACC_R][TOTAL_ACCESS] = 20
L2_total_cache_reservation_fail_breakdown:
	L2_cache_stats_fail_breakdown[GLOBAL_ACC_W][MISS_QUEUE_FULL] = 33
L2_cache_data_port_util = 0.000
L2_cache_fill_port_util = 0.136

icnt_total_pkts_mem_to_simt=2020
icnt_total_pkts_simt_to_mem=9620
LD_mem_lat_dist  0 0 0 0 0 0 0 0 0 0 0 0 0 0 0 0 0 0 0 0 0 0 0 0 0 0 0
ST_mem_lat_dist  0 0 0 0 0 0 0 0 0 0 0 0 0 0 0 0 0 0 0 0 0 0 0 0 0 0 0
----------------------------Interconnect-DETAILS--------------------------------
Class 0:
Packet latency average = 30.0036
	minimum = 6
	maximum = 798
Network latency average = 23.4119
	minimum = 6
	maximum = 775
Slowest packet = 1212
Flit latency average = 26.9821
	minimum = 6
	maximum = 771
Slowest flit = 5589
Fragmentation average = 2.53196
	minimum = 0
	maximum = 746
Injected packet rate average = 0.011933
	minimum = 0 (at node 10)
	maximum = 0.0298324 (at node 0)
Accepted packet rate average = 0.011933
	minimum = 0 (at node 10)
	maximum = 0.0298324 (at node 0)
Injected flit rate average = 0.0357989
	minimum = 0 (at node 10)
	maximum = 0.147932 (at node 0)
Accepted flit rate average= 0.0357989
	minimum = 0 (at node 10)
	maximum = 0.0938029 (at node 20)
Injected packet length average = 3
Accepted packet length average = 3
Total in-flight flits = 0 (0 measured)
====== Overall Traffic Statistics ======
====== Traffic class 0 ======
Packet latency average = 30.0036 (1 samples)
	minimum = 6 (1 samples)
	maximum = 798 (1 samples)
Network latency average = 23.4119 (1 samples)
	minimum = 6 (1 samples)
	maximum = 775 (1 samples)
Flit latency average = 26.9821 (1 samples)
	minimum = 6 (1 samples)
	maximum = 771 (1 samples)
Fragmentation average = 2.53196 (1 samples)
	minimum = 0 (1 samples)
	maximum = 746 (1 samples)
Injected packet rate average = 0.011933 (1 samples)
	minimum = 0 (1 samples)
	maximum = 0.0298324 (1 samples)
Accepted packet rate average = 0.011933 (1 samples)
	minimum = 0 (1 samples)
	maximum = 0.0298324 (1 samples)
Injected flit rate average = 0.0357989 (1 samples)
	minimum = 0 (1 samples)
	maximum = 0.147932 (1 samples)
Accepted flit rate average = 0.0357989 (1 samples)
	minimum = 0 (1 samples)
	maximum = 0.0938029 (1 samples)
Injected packet size average = 3 (1 samples)
Accepted packet size average = 3 (1 samples)
Hops average = 1 (1 samples)
----------------------------END-of-Interconnect-DETAILS-------------------------


gpgpu_simulation_time = 0 days, 0 hrs, 0 min, 1 sec (1 sec)
gpgpu_simulation_rate = 245760 (inst/sec)
gpgpu_simulation_rate = 3529 (cycle/sec)
gpgpu_silicon_slowdown = 455369x
Processing kernel /benchrun/accelsim-sass/babelstream/sm6_gtx1080/input-arraysize-10240-numtimes-1/results/traces/kernel-2.traceg
-kernel name = _Z11copy_kernelIdEvPKT_PS0_
-kernel id = 2
-grid dim = (10,1,1)
-block dim = (1024,1,1)
-shmem = 0
-nregs = 6
-binary version = 61
-cuda stream id = 0
-shmem base_addr = 0x00007fef22000000
-local mem base_addr = 0x00007fef20000000
-nvbit version = 1.5.5
-accelsim tracer version = 3
Header info loaded for kernel command : /benchrun/accelsim-sass/babelstream/sm6_gtx1080/input-arraysize-10240-numtimes-1/results/traces/kernel-2.traceg
launching kernel name: _Z11copy_kernelIdEvPKT_PS0_ uid: 2
GPGPU-Sim uArch: Shader 10 bind to kernel 2 '_Z11copy_kernelIdEvPKT_PS0_'
thread block = 0,0,0
GPGPU-Sim uArch: Shader 11 bind to kernel 2 '_Z11copy_kernelIdEvPKT_PS0_'
thread block = 1,0,0
GPGPU-Sim uArch: Shader 12 bind to kernel 2 '_Z11copy_kernelIdEvPKT_PS0_'
thread block = 2,0,0
GPGPU-Sim uArch: Shader 13 bind to kernel 2 '_Z11copy_kernelIdEvPKT_PS0_'
thread block = 3,0,0
GPGPU-Sim uArch: Shader 14 bind to kernel 2 '_Z11copy_kernelIdEvPKT_PS0_'
thread block = 4,0,0
GPGPU-Sim uArch: Shader 15 bind to kernel 2 '_Z11copy_kernelIdEvPKT_PS0_'
thread block = 5,0,0
GPGPU-Sim uArch: Shader 16 bind to kernel 2 '_Z11copy_kernelIdEvPKT_PS0_'
thread block = 6,0,0
GPGPU-Sim uArch: Shader 17 bind to kernel 2 '_Z11copy_kernelIdEvPKT_PS0_'
thread block = 7,0,0
GPGPU-Sim uArch: Shader 18 bind to kernel 2 '_Z11copy_kernelIdEvPKT_PS0_'
thread block = 8,0,0
GPGPU-Sim uArch: Shader 19 bind to kernel 2 '_Z11copy_kernelIdEvPKT_PS0_'
thread block = 9,0,0
Destroy streams for kernel 2: size 0
kernel_name = _Z11copy_kernelIdEvPKT_PS0_ 
kernel_launch_uid = 2 
gpu_sim_cycle = 1103
gpu_sim_insn = 153600
gpu_ipc =     139.2566
gpu_tot_sim_cycle = 4632
gpu_tot_sim_insn = 399360
gpu_tot_ipc =      86.2176
gpu_tot_issued_cta = 20
gpu_occupancy = 44.2172% 
gpu_tot_occupancy = 38.2830% 
max_total_param_size = 0
gpu_stall_dramfull = 14789
gpu_stall_icnt2sh    = 6585
partiton_level_parallism =       1.1786
partiton_level_parallism_total  =       0.6995
partiton_level_parallism_util =       4.3624
partiton_level_parallism_util_total  =       3.5526
L2_BW  =     111.7128 GB/Sec
L2_BW_total  =      66.2997 GB/Sec
gpu_total_sim_rate=399360

========= Core cache stats =========
L1I_cache:
	L1I_total_cache_accesses = 6400
	L1I_total_cache_misses = 1280
	L1I_total_cache_miss_rate = 0.2000
	L1I_total_cache_pending_hits = 0
	L1I_total_cache_reservation_fails = 0
L1D_cache:
	L1D_cache_core[0]: Access = 0, Miss = 0, Miss_rate = -nan, Pending_hits = 0, Reservation_fails = 0
	L1D_cache_core[1]: Access = 0, Miss = 0, Miss_rate = -nan, Pending_hits = 0, Reservation_fails = 0
	L1D_cache_core[2]: Access = 0, Miss = 0, Miss_rate = -nan, Pending_hits = 0, Reservation_fails = 0
	L1D_cache_core[3]: Access = 0, Miss = 0, Miss_rate = -nan, Pending_hits = 0, Reservation_fails = 0
	L1D_cache_core[4]: Access = 0, Miss = 0, Miss_rate = -nan, Pending_hits = 0, Reservation_fails = 0
	L1D_cache_core[5]: Access = 0, Miss = 0, Miss_rate = -nan, Pending_hits = 0, Reservation_fails = 0
	L1D_cache_core[6]: Access = 0, Miss = 0, Miss_rate = -nan, Pending_hits = 0, Reservation_fails = 0
	L1D_cache_core[7]: Access = 0, Miss = 0, Miss_rate = -nan, Pending_hits = 0, Reservation_fails = 0
	L1D_cache_core[8]: Access = 0, Miss = 0, Miss_rate = -nan, Pending_hits = 0, Reservation_fails = 0
	L1D_cache_core[9]: Access = 0, Miss = 0, Miss_rate = -nan, Pending_hits = 0, Reservation_fails = 0
[...]
Wasted_Row = 24 
Idle = 71589 

BW Util Bottlenecks: 
RCDc_limit = 24 
RCDWRc_limit = 30 
WTRc_limit = 2251 
RTWc_limit = 2240 
CCDLc_limit = 0 
rwq = 0 
CCDLc_limit_alone = 0 
WTRc_limit_alone = 2251 
RTWc_limit_alone = 2240 

Commands details: 
total_CMD = 75936 
n_nop = 73975 
Read = 8 
Write = 965 
L2_Alloc = 968 
L2_WB = 0 
n_act = 18 
n_pre = 2 
n_ref = 0 
n_req = 489 
total_req = 1941 

Dual Bus Interface Util: 
issued_total_row = 20 
issued_total_col = 1941 
Row_Bus_Util =  0.000263 
CoL_Bus_Util = 0.025561 
Either_Row_CoL_Bus_Util = 0.025824 
Issued_on_Two_Bus_Simul_Util = 0.000000 
issued_two_Eff = 0.000000 
queue_avg = 3.181482 


dram_util_bins: 0 0 0 0 0 0 0 0 0 0
dram_eff_bins: 0 0 0 0 0 0 0 0 0 0
mrqq: max=64 avg=3.18148
Memory Partition 2: 
Cache L2_bank_004:
MSHR contents

Cache L2_bank_005:
MSHR contents

In Dram Latency Queue (total = 0): 
DRAM[2]: 16 bks, busW=4 BL=8 CL=12, tRRD=6 tCCD=2, tRCD=12 tRAS=28 tRP=12 tRC=40
n_cmd=75936 n_nop=73971 n_act=18 n_pre=2 n_ref_event=0 n_req=494 n_rd=8 n_rd_L2_A=968 n_write=970 n_wr_bk=0 bw_util=0.05125
n_activity=4456 dram_eff=0.8734
bk0: 68a 72236i bk1: 68a 72222i bk2: 64a 72280i bk3: 64a 72259i bk4: 64a 72273i bk5: 64a 72244i bk6: 64a 72140i bk7: 64a 72126i bk8: 64a 72145i bk9: 64a 72130i bk10: 64a 72171i bk11: 64a 72145i bk12: 64a 72262i bk13: 64a 72243i bk14: 36a 74164i bk15: 36a 74381i 

------------------------------------------------------------------------

Row_Buffer_Locality = 0.963563
Row_Buffer_Locality_read = 0.991803
Row_Buffer_Locality_write = 0.936000
Bank_Level_Parallism = 12.911751
Bank_Level_Parallism_Col = 12.980061
Bank_Level_Parallism_Ready = 7.177287
write_to_read_ratio_blp_rw_average = 0.479361
GrpLevelPara = 1.000000 

BW Util details:
bwutil = 0.051254 
total_CMD = 75936 
util_bw = 3892 
Wasted_Col = 435 
Wasted_Row = 24 
Idle = 71585 

BW Util Bottlenecks: 
RCDc_limit = 24 
RCDWRc_limit = 35 
WTRc_limit = 2215 
RTWc_limit = 2225 
CCDLc_limit = 0 
rwq = 0 
CCDLc_limit_alone = 0 
WTRc_limit_alone = 2215 
RTWc_limit_alone = 2225 

Commands details: 
total_CMD = 75936 
n_nop = 73971 
Read = 8 
Write = 970 
L2_Alloc = 968 
L2_WB = 0 
n_act = 18 
n_pre = 2 
n_ref = 0 
n_req = 494 
total_req = 1946 

Dual Bus Interface Util: 
issued_total_row = 20 
issued_total_col = 1946 
Row_Bus_Util =  0.000263 
CoL_Bus_Util = 0.025627 
Either_Row_CoL_Bus_Util = 0.025877 
Issued_on_Two_Bus_Simul_Util = 0.000013 
issued_two_Eff = 0.000509 
queue_avg = 3.147875 


dram_util_bins: 0 0 0 0 0 0 0 0 0 0
dram_eff_bins: 0 0 0 0 0 0 0 0 0 0
mrqq: max=64 avg=3.14787
Memory Partition 3: 
Cache L2_bank_006:
MSHR contents

Cache L2_bank_007:
MSHR contents

In Dram Latency Queue (total = 0): 
DRAM[3]: 16 bks, busW=4 BL=8 CL=12, tRRD=6 tCCD=2, tRCD=12 tRAS=28 tRP=12 tRC=40
n_cmd=75936 n_nop=73985 n_act=16 n_pre=0 n_ref_event=0 n_req=490 n_rd=0 n_rd_L2_A=968 n_write=968 n_wr_bk=0 bw_util=0.05099
n_activity=4351 dram_eff=0.8899
bk0: 64a 72210i bk1: 64a 72195i bk2: 64a 72324i bk3: 64a 72287i bk4: 64a 72222i bk5: 64a 72211i bk6: 64a 72103i bk7: 64a 72090i bk8: 64a 72112i bk9: 64a 72097i bk10: 64a 72127i bk11: 64a 72202i bk12: 64a 72304i bk13: 64a 72279i bk14: 36a 74769i bk15: 36a 74668i 

------------------------------------------------------------------------

Row_Buffer_Locality = 0.967347
Row_Buffer_Locality_read = 1.000000
Row_Buffer_Locality_write = 0.935484
Bank_Level_Parallism = 12.960122
Bank_Level_Parallism_Col = 12.956359
Bank_Level_Parallism_Ready = 7.025271
write_to_read_ratio_blp_rw_average = 0.474937
GrpLevelPara = 1.000000 

BW Util details:
bwutil = 0.050990 
total_CMD = 75936 
util_bw = 3872 
Wasted_Col = 401 
Wasted_Row = 0 
Idle = 71663 

BW Util Bottlenecks: 
RCDc_limit = 0 
RCDWRc_limit = 42 
WTRc_limit = 2309 
RTWc_limit = 2149 
CCDLc_limit = 0 
rwq = 0 
CCDLc_limit_alone = 0 
WTRc_limit_alone = 2309 
RTWc_limit_alone = 2149 

Commands details: 
total_CMD = 75936 
n_nop = 73985 
Read = 0 
Write = 968 
L2_Alloc = 968 
L2_WB = 0 
n_act = 16 
n_pre = 0 
n_ref = 0 
n_req = 490 
total_req = 1936 

Dual Bus Interface Util: 
issued_total_row = 16 
issued_total_col = 1936 
Row_Bus_Util =  0.000211 
CoL_Bus_Util = 0.025495 
Either_Row_CoL_Bus_Util = 0.025693 
Issued_on_Two_Bus_Simul_Util = 0.000013 
issued_two_Eff = 0.000513 
queue_avg = 3.142067 


dram_util_bins: 0 0 0 0 0 0 0 0 0 0
dram_eff_bins: 0 0 0 0 0 0 0 0 0 0
mrqq: max=64 avg=3.14207
Memory Partition 4: 
Cache L2_bank_008:
MSHR contents

Cache L2_bank_009:
MSHR contents

In Dram Latency Queue (total = 0): 
DRAM[4]: 16 bks, busW=4 BL=8 CL=12, tRRD=6 tCCD=2, tRCD=12 tRAS=28 tRP=12 tRC=40
n_cmd=75936 n_nop=73987 n_act=16 n_pre=0 n_ref_event=0 n_req=489 n_rd=0 n_rd_L2_A=968 n_write=967 n_wr_bk=0 bw_util=0.05096
n_activity=4354 dram_eff=0.8888
bk0: 64a 72298i bk1: 64a 72285i bk2: 64a 72305i bk3: 64a 72294i bk4: 64a 72452i bk5: 64a 72475i bk6: 64a 72234i bk7: 64a 72218i bk8: 64a 72236i bk9: 64a 72261i bk10: 64a 72257i bk11: 64a 72249i bk12: 64a 72347i bk13: 64a 72354i bk14: 36a 74040i bk15: 36a 74006i 

------------------------------------------------------------------------

Row_Buffer_Locality = 0.967280
Row_Buffer_Locality_read = 1.000000
Row_Buffer_Locality_write = 0.935223
Bank_Level_Parallism = 12.874620
Bank_Level_Parallism_Col = 12.868286
Bank_Level_Parallism_Ready = 7.079587
write_to_read_ratio_blp_rw_average = 0.485185
GrpLevelPara = 1.000000 

BW Util details:
bwutil = 0.050964 
total_CMD = 75936 
util_bw = 3870 
Wasted_Col = 420 
Wasted_Row = 0 
Idle = 71646 

BW Util Bottlenecks: 
RCDc_limit = 0 
RCDWRc_limit = 24 
WTRc_limit = 2220 
RTWc_limit = 2231 
CCDLc_limit = 0 
rwq = 0 
CCDLc_limit_alone = 0 
WTRc_limit_alone = 2220 
RTWc_limit_alone = 2231 

Commands details: 
total_CMD = 75936 
n_nop = 73987 
Read = 0 
Write = 967 
L2_Alloc = 968 
L2_WB = 0 
n_act = 16 
n_pre = 0 
n_ref = 0 
n_req = 489 
total_req = 1935 

Dual Bus Interface Util: 
issued_total_row = 16 
issued_total_col = 1935 
Row_Bus_Util =  0.000211 
CoL_Bus_Util = 0.025482 
Either_Row_CoL_Bus_Util = 0.025666 
Issued_on_Two_Bus_Simul_Util = 0.000026 
issued_two_Eff = 0.001026 
queue_avg = 3.171092 


dram_util_bins: 0 0 0 0 0 0 0 0 0 0
dram_eff_bins: 0 0 0 0 0 0 0 0 0 0
mrqq: max=64 avg=3.17109
Memory Partition 5: 
Cache L2_bank_010:
MSHR contents

Cache L2_bank_011:
MSHR contents

In Dram Latency Queue (total = 0): 
DRAM[5]: 16 bks, busW=4 BL=8 CL=12, tRRD=6 tCCD=2, tRCD=12 tRAS=28 tRP=12 tRC=40
n_cmd=75936 n_nop=73983 n_act=16 n_pre=0 n_ref_event=0 n_req=493 n_rd=0 n_rd_L2_A=968 n_write=971 n_wr_bk=0 bw_util=0.05107
n_activity=4387 dram_eff=0.884
bk0: 64a 72187i bk1: 64a 72173i bk2: 64a 72546i bk3: 64a 72670i bk4: 64a 72327i bk5: 64a 72316i bk6: 64a 72294i bk7: 64a 72238i bk8: 64a 72357i bk9: 64a 72279i bk10: 64a 72175i bk11: 64a 72183i bk12: 64a 72433i bk13: 64a 72409i bk14: 36a 73799i bk15: 36a 74345i 

------------------------------------------------------------------------

Row_Buffer_Locality = 0.967546
Row_Buffer_Locality_read = 1.000000
Row_Buffer_Locality_write = 0.936255
Bank_Level_Parallism = 12.763238
Bank_Level_Parallism_Col = 12.759683
Bank_Level_Parallism_Ready = 6.995874
write_to_read_ratio_blp_rw_average = 0.478860
GrpLevelPara = 1.000000 

BW Util details:
bwutil = 0.051069 
total_CMD = 75936 
util_bw = 3878 
Wasted_Col = 420 
Wasted_Row = 0 
Idle = 71638 

BW Util Bottlenecks: 
RCDc_limit = 0 
RCDWRc_limit = 23 
WTRc_limit = 2202 
RTWc_limit = 2160 
CCDLc_limit = 0 
rwq = 0 
CCDLc_limit_alone = 0 
WTRc_limit_alone = 2202 
RTWc_limit_alone = 2160 

Commands details: 
total_CMD = 75936 
n_nop = 73983 
Read = 0 
Write = 971 
L2_Alloc = 968 
L2_WB = 0 
n_act = 16 
n_pre = 0 
n_ref = 0 
n_req = 493 
total_req = 1939 

Dual Bus Interface Util: 
issued_total_row = 16 
issued_total_col = 1939 
Row_Bus_Util =  0.000211 
CoL_Bus_Util = 0.025535 
Either_Row_CoL_Bus_Util = 0.025719 
Issued_on_Two_Bus_Simul_Util = 0.000026 
issued_two_Eff = 0.001024 
queue_avg = 3.156685 


dram_util_bins: 0 0 0 0 0 0 0 0 0 0
dram_eff_bins: 0 0 0 0 0 0 0 0 0 0
mrqq: max=64 avg=3.15668
Memory Partition 6: 
Cache L2_bank_012:
MSHR contents

Cache L2_bank_013:
MSHR contents

In Dram Latency Queue (total = 0): 
DRAM[6]: 16 bks, busW=4 BL=8 CL=12, tRRD=6 tCCD=2, tRCD=12 tRAS=28 tRP=12 tRC=40
n_cmd=75936 n_nop=73987 n_act=16 n_pre=0 n_ref_event=0 n_req=489 n_rd=0 n_rd_L2_A=968 n_write=967 n_wr_bk=0 bw_util=0.05096
n_activity=4332 dram_eff=0.8934
bk0: 64a 72101i bk1: 64a 72088i bk2: 64a 72106i bk3: 64a 72223i bk4: 64a 72367i bk5: 64a 72337i bk6: 64a 72080i bk7: 64a 72065i bk8: 64a 72179i bk9: 64a 72144i bk10: 64a 72185i bk11: 64a 72159i bk12: 64a 72161i bk13: 64a 72212i bk14: 36a 74332i bk15: 36a 74380i 

------------------------------------------------------------------------

Row_Buffer_Locality = 0.967280
Row_Buffer_Locality_read = 1.000000
Row_Buffer_Locality_write = 0.935223
Bank_Level_Parallism = 13.200328
Bank_Level_Parallism_Col = 13.197562
Bank_Level_Parallism_Ready = 7.262015
write_to_read_ratio_blp_rw_average = 0.477140
GrpLevelPara = 1.000000 

BW Util details:
bwutil = 0.050964 
total_CMD = 75936 
util_bw = 3870 
Wasted_Col = 406 
Wasted_Row = 0 
Idle = 71660 

BW Util Bottlenecks: 
RCDc_limit = 0 
RCDWRc_limit = 37 
WTRc_limit = 2305 
RTWc_limit = 2180 
CCDLc_limit = 0 
rwq = 0 
CCDLc_limit_alone = 0 
WTRc_limit_alone = 2305 
RTWc_limit_alone = 2180 

Commands details: 
total_CMD = 75936 
n_nop = 73987 
Read = 0 
Write = 967 
L2_Alloc = 968 
L2_WB = 0 
n_act = 16 
n_pre = 0 
n_ref = 0 
n_req = 489 
total_req = 1935 

Dual Bus Interface Util: 
issued_total_row = 16 
issued_total_col = 1935 
Row_Bus_Util =  0.000211 
CoL_Bus_Util = 0.025482 
Either_Row_CoL_Bus_Util = 0.025666 
Issued_on_Two_Bus_Simul_Util = 0.000026 
issued_two_Eff = 0.001026 
queue_avg = 3.154143 


dram_util_bins: 0 0 0 0 0 0 0 0 0 0
dram_eff_bins: 0 0 0 0 0 0 0 0 0 0
mrqq: max=64 avg=3.15414
Memory Partition 7: 
Cache L2_bank_014:
MSHR contents

Cache L2_bank_015:
MSHR contents

In Dram Latency Queue (total = 0): 
DRAM[7]: 16 bks, busW=4 BL=8 CL=12, tRRD=6 tCCD=2, tRCD=12 tRAS=28 tRP=12 tRC=40
n_cmd=75936 n_nop=73975 n_act=16 n_pre=0 n_ref_event=0 n_req=499 n_rd=0 n_rd_L2_A=968 n_write=977 n_wr_bk=0 bw_util=0.05123
n_activity=4411 dram_eff=0.8819
bk0: 64a 72163i bk1: 64a 72150i bk2: 64a 72303i bk3: 64a 72331i bk4: 64a 72218i bk5: 64a 72198i bk6: 64a 72072i bk7: 64a 72123i bk8: 64a 72152i bk9: 64a 72130i bk10: 64a 72117i bk11: 64a 72103i bk12: 64a 72355i bk13: 64a 72527i bk14: 36a 74498i bk15: 36a 74406i 

------------------------------------------------------------------------

Row_Buffer_Locality = 0.967936
Row_Buffer_Locality_read = 1.000000
Row_Buffer_Locality_write = 0.937743
Bank_Level_Parallism = 12.945311
Bank_Level_Parallism_Col = 12.940875
Bank_Level_Parallism_Ready = 7.180463
write_to_read_ratio_blp_rw_average = 0.485625
GrpLevelPara = 1.000000 

BW Util details:
bwutil = 0.051227 
total_CMD = 75936 
util_bw = 3890 
Wasted_Col = 426 
Wasted_Row = 0 
Idle = 71620 

BW Util Bottlenecks: 
RCDc_limit = 0 
RCDWRc_limit = 32 
WTRc_limit = 2297 
RTWc_limit = 2150 
CCDLc_limit = 0 
rwq = 0 
CCDLc_limit_alone = 0 
WTRc_limit_alone = 2297 
RTWc_limit_alone = 2150 

Commands details: 
total_CMD = 75936 
n_nop = 73975 
Read = 0 
Write = 977 
L2_Alloc = 968 
L2_WB = 0 
n_act = 16 
n_pre = 0 
n_ref = 0 
n_req = 499 
total_req = 1945 

Dual Bus Interface Util: 
issued_total_row = 16 
issued_total_col = 1945 
Row_Bus_Util =  0.000211 
CoL_Bus_Util = 0.025614 
Either_Row_CoL_Bus_Util = 0.025824 
Issued_on_Two_Bus_Simul_Util = 0.000000 
issued_two_Eff = 0.000000 
queue_avg = 3.107670 


dram_util_bins: 0 0 0 0 0 0 0 0 0 0
dram_eff_bins: 0 0 0 0 0 0 0 0 0 0
mrqq: max=64 avg=3.10767

========= L2 cache stats =========
L2_cache_bank[0]: Access = 636, Miss = 122, Miss_rate = 0.192, Pending_hits = 11, Reservation_fails = 3
L2_cache_bank[1]: Access = 636, Miss = 122, Miss_rate = 0.192, Pending_hits = 10, Reservation_fails = 4
L2_cache_bank[2]: Access = 636, Miss = 122, Miss_rate = 0.192, Pending_hits = 19, Reservation_fails = 1
L2_cache_bank[3]: Access = 636, Miss = 122, Miss_rate = 0.192, Pending_hits = 6, Reservation_fails = 1
L2_cache_bank[4]: Access = 636, Miss = 122, Miss_rate = 0.192, Pending_hits = 20, Reservation_fails = 0
L2_cache_bank[5]: Access = 636, Miss = 122, Miss_rate = 0.192, Pending_hits = 2, Reservation_fails = 0
L2_cache_bank[6]: Access = 616, Miss = 121, Miss_rate = 0.196, Pending_hits = 3, Reservation_fails = 0
L2_cache_bank[7]: Access = 616, Miss = 121, Miss_rate = 0.196, Pending_hits = 3, Reservation_fails = 1
L2_cache_bank[8]: Access = 616, Miss = 121, Miss_rate = 0.196, Pending_hits = 3, Reservation_fails = 6
L2_cache_bank[9]: Access = 616, Miss = 121, Miss_rate = 0.196, Pending_hits = 2, Reservation_fails = 9
L2_cache_bank[10]: Access = 616, Miss = 121, Miss_rate = 0.196, Pending_hits = 8, Reservation_fails = 2
L2_cache_bank[11]: Access = 616, Miss = 121, Miss_rate = 0.196, Pending_hits = 1, Reservation_fails = 2
L2_cache_bank[12]: Access = 616, Miss = 121, Miss_rate = 0.196, Pending_hits = 1, Reservation_fails = 2
L2_cache_bank[13]: Access = 616, Miss = 121, Miss_rate = 0.196, Pending_hits = 4, Reservation_fails = 2
L2_cache_bank[14]: Access = 616, Miss = 121, Miss_rate = 0.196, Pending_hits = 0, Reservation_fails = 0
L2_cache_bank[15]: Access = 616, Miss = 121, Miss_rate = 0.196, Pending_hits = 15, Reservation_fails = 0
L2_total_cache_accesses = 9976
L2_total_cache_misses = 1942
L2_total_cache_miss_rate = 0.1947
L2_total_cache_pending_hits = 108
L2_total_cache_reservation_fails = 33
L2_total_cache_breakdown:
	L2_cache_stats_breakdown[GLOBAL_ACC_R][HIT] = 5120
	L2_cache_stats_breakdown[GLOBAL_ACC_R][HIT_RESERVED] = 0
	L2_cache_stats_breakdown[GLOBAL_ACC_R][MISS] = 0
	L2_cache_stats_breakdown[GLOBAL_ACC_R][RESERVATION_FAIL] = 0
	L2_cache_stats_breakdown[GLOBAL_ACC_R][SECTOR_MISS] = 0
	L2_cache_stats_breakdown[GLOBAL_ACC_R][MSHR_HIT] = 0
	L2_cache_stats_breakdown[LOCAL_ACC_R][HIT] = 0
	L2_cache_stats_breakdown[LOCAL_ACC_R][HIT_RESERVED] = 0
	L2_cache_stats_breakdown[LOCAL_ACC_R][MISS] = 0
	L2_cache_stats_breakdown[LOCAL_ACC_R][RESERVATION_FAIL] = 0
	L2_cache_stats_breakdown[LOCAL_ACC_R][SECTOR_MISS] = 0
	L2_cache_stats_breakdown[LOCAL_ACC_R][MSHR_HIT] = 0
	L2_cache_stats_breakdown[CONST_ACC_R][HIT] = 0
	L2_cache_stats_breakdown[CONST_ACC_R][HIT_RESERVED] = 0
	L2_cache_stats_breakdown[CONST_ACC_R][MISS] = 0
	L2_cache_stats_breakdown[CONST_ACC_R][RESERVATION_FAIL] = 0
	L2_cache_stats_breakdown[CONST_ACC_R][SECTOR_MISS] = 0
	L2_cache_stats_breakdown[CONST_ACC_R][MSHR_HIT] = 0
	L2_cache_stats_breakdown[TEXTURE_ACC_R][HIT] = 0
	L2_cache_stats_breakdown[TEXTURE_ACC_R][HIT_RESERVED] = 0
	L2_cache_stats_breakdown[TEXTURE_ACC_R][MISS] = 0
	L2_cache_stats_breakdown[TEXTURE_ACC_R][RESERVATION_FAIL] = 0
	L2_cache_stats_breakdown[TEXTURE_ACC_R][SECTOR_MISS] = 0
	L2_cache_stats_breakdown[TEXTURE_ACC_R][MSHR_HIT] = 0
	L2_cache_stats_breakdown[GLOBAL_ACC_W][HIT] = 2746
	L2_cache_stats_breakdown[GLOBAL_ACC_W][HIT_RESERVED] = 54
	L2_cache_stats_breakdown[GLOBAL_ACC_W][MISS] = 1936
	L2_cache_stats_breakdown[GLOBAL_ACC_W][RESERVATION_FAIL] = 33
	L2_cache_stats_breakdown[GLOBAL_ACC_W][SECTOR_MISS] = 0
	L2_cache_stats_breakdown[GLOBAL_ACC_W][MSHR_HIT] = 0
	L2_cache_stats_breakdown[LOCAL_ACC_W][HIT] = 0
	L2_cache_stats_breakdown[LOCAL_ACC_W][HIT_RESERVED] = 0
	L2_cache_stats_breakdown[LOCAL_ACC_W][MISS] = 0
	L2_cache_stats_breakdown[LOCAL_ACC_W][RESERVATION_FAIL] = 0
	L2_cache_stats_breakdown[LOCAL_ACC_W][SECTOR_MISS] = 0
	L2_cache_stats_breakdown[LOCAL_ACC_W][MSHR_HIT] = 0
	L2_cache_stats_breakdown[L1_WRBK_ACC][HIT] = 0
	L2_cache_stats_breakdown[L1_WRBK_ACC][HIT_RESERVED] = 0
	L2_cache_stats_breakdown[L1_WRBK_ACC][MISS] = 0
	L2_cache_stats_breakdown[L1_WRBK_ACC][RESERVATION_FAIL] = 0
	L2_cache_stats_breakdown[L1_WRBK_ACC][SECTOR_MISS] = 0
	L2_cache_stats_breakdown[L1_WRBK_ACC][MSHR_HIT] = 0
	L2_cache_stats_breakdown[L2_WRBK_ACC][HIT] = 0
	L2_cache_stats_breakdown[L2_WRBK_ACC][HIT_RESERVED] = 0
	L2_cache_stats_breakdown[L2_WRBK_ACC][MISS] = 0
	L2_cache_stats_breakdown[L2_WRBK_ACC][RESERVATION_FAIL] = 0
	L2_cache_stats_breakdown[L2_WRBK_ACC][SECTOR_MISS] = 0
	L2_cache_stats_breakdown[L2_WRBK_ACC][MSHR_HIT] = 0
	L2_cache_stats_breakdown[INST_ACC_R][HIT] = 60
	L2_cache_stats_breakdown[INST_ACC_R][HIT_RESERVED] = 54
	L2_cache_stats_breakdown[INST_ACC_R][MISS] = 6
	L2_cache_stats_breakdown[INST_ACC_R][RESERVATION_FAIL] = 0
	L2_cache_stats_breakdown[INST_ACC_R][SECTOR_MISS] = 0
	L2_cache_stats_breakdown[INST_ACC_R][MSHR_HIT] = 54
	L2_cache_stats_breakdown[L1_WR_ALLOC_R][HIT] = 0
	L2_cache_stats_breakdown[L1_WR_ALLOC_R][HIT_RESERVED] = 0
	L2_cache_stats_breakdown[L1_WR_ALLOC_R][MISS] = 0
	L2_cache_stats_breakdown[L1_WR_ALLOC_R][RESERVATION_FAIL] = 0
	L2_cache_stats_breakdown[L1_WR_ALLOC_R][SECTOR_MISS] = 0
	L2_cache_stats_breakdown[L1_WR_ALLOC_R][MSHR_HIT] = 0
	L2_cache_stats_breakdown[L2_WR_ALLOC_R][HIT] = 0
	L2_cache_stats_breakdown[L2_WR_ALLOC_R][HIT_RESERVED] = 0
	L2_cache_stats_breakdown[L2_WR_ALLOC_R][MISS] = 0
	L2_cache_stats_breakdown[L2_WR_ALLOC_R][RESERVATION_FAIL] = 0
	L2_cache_stats_breakdown[L2_WR_ALLOC_R][SECTOR_MISS] = 0
	L2_cache_stats_breakdown[L2_WR_ALLOC_R][MSHR_HIT] = 54
	L2_cache_stats_breakdown[GLOBAL_ACC_R][TOTAL_ACCESS] = 5120
	L2_cache_stats_breakdown[GLOBAL_ACC_W][TOTAL_ACCESS] = 4736
	L2_cache_stats_breakdown[INST_ACC_R][TOTAL_ACCESS] = 120
L2_total_cache_reservation_fail_breakdown:
	L2_cache_stats_fail_breakdown[GLOBAL_ACC_W][MISS_QUEUE_FULL] = 33
L2_cache_data_port_util = 0.044
L2_cache_fill_port_util = 0.011

icnt_total_pkts_mem_to_simt=30936
icnt_total_pkts_simt_to_mem=28152
LD_mem_lat_dist  0 0 0 0 0 0 0 0 0 0 0 0 0 0 0 0 0 0 0 0 0 0 0 0 0 0 0
ST_mem_lat_dist  0 0 0 0 0 0 0 0 0 0 0 0 0 0 0 0 0 0 0 0 0 0 0 0 0 0 0
----------------------------Interconnect-DETAILS--------------------------------
Class 0:
Packet latency average = 28.9381
	minimum = 6
	maximum = 798
Network latency average = 21.5317
	minimum = 6
	maximum = 775
Slowest packet = 1212
Flit latency average = 20.9686
	minimum = 6
	maximum = 771
Slowest flit = 5589
Fragmentation average = 0.770198
	minimum = 0
	maximum = 746
Injected packet rate average = 0.00487884
	minimum = 0 (at node 36)
	maximum = 0.00777601 (at node 20)
Accepted packet rate average = 0.00487884
	minimum = 0 (at node 36)
	maximum = 0.00777601 (at node 20)
Injected flit rate average = 0.0144487
	minimum = 0 (at node 36)
	maximum = 0.024404 (at node 20)
Accepted flit rate average= 0.0144487
	minimum = 0 (at node 36)
	maximum = 0.0216652 (at node 20)
Injected packet length average = 2.96151
Accepted packet length average = 2.96151
Total in-flight flits = 0 (0 measured)
====== Overall Traffic Statistics ======
====== Traffic class 0 ======
Packet latency average = 28.1495 (6 samples)
	minimum = 6 (6 samples)
	maximum = 798 (6 samples)
Network latency average = 21.5308 (6 samples)
	minimum = 6 (6 samples)
	maximum = 775 (6 samples)
Flit latency average = 22.5289 (6 samples)
	minimum = 6 (6 samples)
	maximum = 771 (6 samples)
Fragmentation average = 1.35647 (6 samples)
	minimum = 0 (6 samples)
	maximum = 746 (6 samples)
Injected packet rate average = 0.0156911 (6 samples)
	minimum = 0 (6 samples)
	maximum = 0.0278404 (6 samples)
Accepted packet rate average = 0.0156911 (6 samples)
	minimum = 0 (6 samples)
	maximum = 0.0278404 (6 samples)
Injected flit rate average = 0.0470419 (6 samples)
	minimum = 0 (6 samples)
	maximum = 0.108781 (6 samples)
Accepted flit rate average = 0.0470419 (6 samples)
	minimum = 0 (6 samples)
	maximum = 0.0921697 (6 samples)
Injected packet size average = 2.99801 (6 samples)
Accepted packet size average = 2.99801 (6 samples)
Hops average = 1 (6 samples)
----------------------------END-of-Interconnect-DETAILS-------------------------


gpgpu_simulation_time = 0 days, 0 hrs, 0 min, 26 sec (26 sec)
gpgpu_simulation_rate = 1183832 (inst/sec)
gpgpu_simulation_rate = 1706 (cycle/sec)
gpgpu_silicon_slowdown = 941969x
GPGPU-Sim: *** simulation thread exiting ***
GPGPU-Sim: *** exit detected ***
