GPGPU-Sim version 4.2.0 (build gpgpu-sim_git-commit-13c67115070dc2f0876254a790d0238073ca364a-modified_590.0) configured with AccelWattch.

----------------------------------------------------------------------------
INFO - If you only care about PTX execution, ignore this message. GPGPU-Sim supports PTX execution in modern CUDA.
If you want to run PTXPLUS (sm_1x SASS) with a modern card configuration - set the envronment variable
$PTXAS_CUDA_INSTALL_PATH to point a CUDA version compabible with your card configurations (i.e. 8+ for PASCAL, 9+ for VOLTA etc..)
For example: "export $PTXAS_CUDA_INSTALL_PATH=/usr/local/cuda-9.1"

The following text describes why:
If you are using PTXPLUS, only sm_1x is supported and it requires that the app and simulator binaries are compiled in CUDA 4.2 or less.
The simulator requires it since CUDA headers desribe struct sizes in the exec which change from gen to gen.
The apps require 4.2 because new versions of CUDA tools have dropped parsing support for generating sm_1x
When running using modern config (i.e. volta) and PTXPLUS with CUDA 4.2, the $PTXAS_CUDA_INSTALL_PATH env variable is required to get proper register usage
(and hence occupancy) using a version of CUDA that knows the register usage on the real card.

----------------------------------------------------------------------------
setup_environment succeeded


        *** GPGPU-Sim Simulator Version 4.2.0  [build gpgpu-sim_git-commit-13c67115070dc2f0876254a790d0238073ca364a_modified_0.0] ***


GPGPU-Sim PTX: simulation mode 0 (can change with PTX_SIM_MODE_FUNC environment variable:
               1=functional simulation only, 0=detailed performance simulator)
GPGPU-Sim PTX: overriding embedded ptx with ptx file (PTX_SIM_USE_PTX_FILE is set)
GPGPU-Sim: Configuration options:

-save_embedded_ptx                      0 # saves ptx files embedded in binary as <n>.ptx
-keep                                   0 # keep intermediate files created by GPGPU-Sim when interfacing with external programs
-gpgpu_ptx_save_converted_ptxplus                    0 # Saved converted ptxplus to a file
-gpgpu_occupancy_sm_number                   60 # The SM number to pass to ptxas when getting register usage for computing GPU occupancy. This parameter is required in the config.
-ptx_opcode_latency_int         4,13,4,5,145 # Opcode latencies for integers <ADD,MAX,MUL,MAD,DIV,SHFL>Default 1,1,19,25,145,32
-ptx_opcode_latency_fp          4,13,4,5,39 # Opcode latencies for single precision floating points <ADD,MAX,MUL,MAD,DIV>Default 1,1,1,1,30
-ptx_opcode_latency_dp         8,19,8,8,330 # Opcode latencies for double precision floating points <ADD,MAX,MUL,MAD,DIV>Default 8,8,8,8,335
-ptx_opcode_latency_sfu                    8 # Opcode latencies for SFU instructionsDefault 8
-ptx_opcode_latency_tesnor                   64 # Opcode latencies for Tensor instructionsDefault 64
-ptx_opcode_initiation_int            1,2,2,2,8 # Opcode initiation intervals for integers <ADD,MAX,MUL,MAD,DIV,SHFL>Default 1,1,4,4,32,4
-ptx_opcode_initiation_fp            1,2,1,1,4 # Opcode initiation intervals for single precision floating points <ADD,MAX,MUL,MAD,DIV>Default 1,1,1,1,5
-ptx_opcode_initiation_dp          1,2,1,1,130 # Opcode initiation intervals for double precision floating points <ADD,MAX,MUL,MAD,DIV>Default 8,8,8,8,130
-ptx_opcode_initiation_sfu                    8 # Opcode initiation intervals for sfu instructionsDefault 8
-ptx_opcode_initiation_tensor                   64 # Opcode initiation intervals for tensor instructionsDefault 64
-cdp_latency         7200,8000,100,12000,1600 # CDP API latency <cudaStreamCreateWithFlags, cudaGetParameterBufferV2_init_perWarp, cudaGetParameterBufferV2_perKernel, cudaLaunchDeviceV2_init_perWarp, cudaLaunchDevicV2_perKernel>Default 7200,8000,100,12000,1600
-network_mode                           1 # Interconnection network mode
-inter_config_file   config_fermi_islip.icnt # Interconnection network config file
-icnt_in_buffer_limit                   64 # in_buffer_limit
-icnt_out_buffer_limit                   64 # out_buffer_limit
-icnt_subnets                           2 # subnets
-icnt_arbiter_algo                      1 # arbiter_algo
-icnt_verbose                           0 # inct_verbose
-icnt_grant_cycles                      1 # grant_cycles
-gpgpu_ptx_use_cuobjdump                    1 # Use cuobjdump to extract ptx and sass from binaries
-gpgpu_experimental_lib_support                    0 # Try to extract code from cuda libraries [Broken because of unknown cudaGetExportTable]
-checkpoint_option                      0 #  checkpointing flag (0 = no checkpoint)
-checkpoint_kernel                      1 #  checkpointing during execution of which kernel (1- 1st kernel)
-checkpoint_CTA                         0 #  checkpointing after # of CTA (< less than total CTA)
-resume_option                          0 #  resume flag (0 = no resume)
-resume_kernel                          0 #  Resume from which kernel (1= 1st kernel)
-resume_CTA                             0 #  resume from which CTA 
-checkpoint_CTA_t                       0 #  resume from which CTA 
-checkpoint_insn_Y                      0 #  resume from which CTA 
-gpgpu_ptx_convert_to_ptxplus                    0 # Convert SASS (native ISA) to ptxplus and run ptxplus
-gpgpu_ptx_force_max_capability                   60 # Force maximum compute capability
-gpgpu_ptx_inst_debug_to_file                    0 # Dump executed instructions' debug information to file
-gpgpu_ptx_inst_debug_file       inst_debug.txt # Executed instructions' debug output file
-gpgpu_ptx_inst_debug_thread_uid                    1 # Thread UID for executed instructions' debug output
-gpgpu_simd_model                       1 # 1 = post-dominator
-gpgpu_shader_core_pipeline              2048:32 # shader core pipeline config, i.e., {<nthread>:<warpsize>}
-gpgpu_tex_cache:l1  N:16:128:24,L:R:m:N:L,F:128:4,128:2 # per-shader L1 texture cache  (READ-ONLY) config  {<nsets>:<bsize>:<assoc>,<rep>:<wr>:<alloc>:<wr_alloc>,<mshr>:<N>:<merge>,<mq>:<rf>}
-gpgpu_const_cache:l1 N:128:64:2,L:R:f:N:L,A:2:64,4 # per-shader L1 constant memory cache  (READ-ONLY) config  {<nsets>:<bsize>:<assoc>,<rep>:<wr>:<alloc>:<wr_alloc>,<mshr>:<N>:<merge>,<mq>} 
-gpgpu_cache:il1     N:8:128:4,L:R:f:N:L,A:2:48,4 # shader L1 instruction cache config  {<nsets>:<bsize>:<assoc>,<rep>:<wr>:<alloc>:<wr_alloc>,<mshr>:<N>:<merge>,<mq>} 
-gpgpu_cache:dl1     N:64:128:6,L:L:m:N:H,A:128:8,8 # per-shader L1 data cache config  {<nsets>:<bsize>:<assoc>,<rep>:<wr>:<alloc>:<wr_alloc>,<mshr>:<N>:<merge>,<mq> | none}
-gpgpu_l1_cache_write_ratio                    0 # L1D write ratio
-gpgpu_l1_banks                         1 # The number of L1 cache banks
-gpgpu_l1_banks_byte_interleaving                   32 # l1 banks byte interleaving granularity
-gpgpu_l1_banks_hashing_function                    0 # l1 banks hashing function
-gpgpu_l1_latency                       1 # L1 Hit Latency
-gpgpu_smem_latency                     3 # smem Latency
-gpgpu_cache:dl1PrefL1                 none # per-shader L1 data cache config  {<nsets>:<bsize>:<assoc>,<rep>:<wr>:<alloc>:<wr_alloc>,<mshr>:<N>:<merge>,<mq> | none}
-gpgpu_cache:dl1PrefShared                 none # per-shader L1 data cache config  {<nsets>:<bsize>:<assoc>,<rep>:<wr>:<alloc>:<wr_alloc>,<mshr>:<N>:<merge>,<mq> | none}
-gpgpu_gmem_skip_L1D                    1 # global memory access skip L1D cache (implements -Xptxas -dlcm=cg, default=no skip)
-gpgpu_perfect_mem                      0 # enable perfect memory mode (no cache miss)
-n_regfile_gating_group                    4 # group of lanes that should be read/written together)
-gpgpu_clock_gated_reg_file                    0 # enable clock gated reg file for power calculations
-gpgpu_clock_gated_lanes                    0 # enable clock gated lanes for power calculations
-gpgpu_shader_registers                65536 # Number of registers per shader core. Limits number of concurrent CTAs. (default 8192)
-gpgpu_registers_per_block                 8192 # Maximum number of registers per CTA. (default 8192)
-gpgpu_ignore_resources_limitation                    0 # gpgpu_ignore_resources_limitation (default 0)
-gpgpu_shader_cta                      32 # Maximum number of concurrent CTAs in shader (default 32)
-gpgpu_num_cta_barriers                   16 # Maximum number of named barriers per CTA (default 16)
-gpgpu_n_clusters                      20 # number of processing clusters
-gpgpu_n_cores_per_cluster                    1 # number of simd cores per cluster
-gpgpu_n_cluster_ejection_buffer_size                    8 # number of packets in ejection buffer
-gpgpu_n_ldst_response_buffer_size                    2 # number of response packets in ld/st unit ejection buffer
-gpgpu_shmem_per_block                49152 # Size of shared memory per thread block or CTA (default 48kB)
-gpgpu_shmem_size                   98304 # Size of shared memory per shader core (default 16kB)
-gpgpu_shmem_option                     0 # Option list of shared memory sizes
-gpgpu_unified_l1d_size                    0 # Size of unified data cache(L1D + shared memory) in KB
-gpgpu_adaptive_cache_config                    0 # adaptive_cache_config
-gpgpu_shmem_sizeDefault                16384 # Size of shared memory per shader core (default 16kB)
-gpgpu_shmem_size_PrefL1                16384 # Size of shared memory per shader core (default 16kB)
-gpgpu_shmem_size_PrefShared                16384 # Size of shared memory per shader core (default 16kB)
-gpgpu_shmem_num_banks                   32 # Number of banks in the shared memory in each shader core (default 16)
-gpgpu_shmem_limited_broadcast                    0 # Limit shared memory to do one broadcast per cycle (default on)
-gpgpu_shmem_warp_parts                    1 # Number of portions a warp is divided into for shared memory bank conflict check 
-gpgpu_mem_unit_ports                    1 # The number of memory transactions allowed per core cycle
-gpgpu_shmem_warp_parts                    1 # Number of portions a warp is divided into for shared memory bank conflict check 
-gpgpu_warpdistro_shader                   -1 # Specify which shader core to collect the warp size distribution from
-gpgpu_warp_issue_shader                    0 # Specify which shader core to collect the warp issue distribution from
-gpgpu_local_mem_map                    1 # Mapping from local memory space address to simulated GPU physical address space (default = enabled)
-gpgpu_num_reg_banks                   32 # Number of register banks (default = 8)
-gpgpu_reg_bank_use_warp_id                    0 # Use warp ID in mapping registers to banks (default = off)
-gpgpu_sub_core_model                    0 # Sub Core Volta/Pascal model (default = off)
-gpgpu_enable_specialized_operand_collector                    1 # enable_specialized_operand_collector
-gpgpu_operand_collector_num_units_sp                   20 # number of collector units (default = 4)
-gpgpu_operand_collector_num_units_dp                    0 # number of collector units (default = 0)
-gpgpu_operand_collector_num_units_sfu                    4 # number of collector units (default = 4)
-gpgpu_operand_collector_num_units_int                    0 # number of collector units (default = 0)
-gpgpu_operand_collector_num_units_tensor_core                    4 # number of collector units (default = 4)
-gpgpu_operand_collector_num_units_mem                    8 # number of collector units (default = 2)
-gpgpu_operand_collector_num_units_gen                    0 # number of collector units (default = 0)
-gpgpu_operand_collector_num_in_ports_sp                    4 # number of collector unit in ports (default = 1)
-gpgpu_operand_collector_num_in_ports_dp                    0 # number of collector unit in ports (default = 0)
-gpgpu_operand_collector_num_in_ports_sfu                    1 # number of collector unit in ports (default = 1)
-gpgpu_operand_collector_num_in_ports_int                    0 # number of collector unit in ports (default = 0)
-gpgpu_operand_collector_num_in_ports_tensor_core                    1 # number of collector unit in ports (default = 1)
-gpgpu_operand_collector_num_in_ports_mem                    1 # number of collector unit in ports (default = 1)
-gpgpu_operand_collector_num_in_ports_gen                    0 # number of collector unit in ports (default = 0)
-gpgpu_operand_collector_num_out_ports_sp                    4 # number of collector unit in ports (default = 1)
-gpgpu_operand_collector_num_out_ports_dp                    0 # number of collector unit in ports (default = 0)
-gpgpu_operand_collector_num_out_ports_sfu                    1 # number of collector unit in ports (default = 1)
-gpgpu_operand_collector_num_out_ports_int                    0 # number of collector unit in ports (default = 0)
-gpgpu_operand_collector_num_out_ports_tensor_core                    1 # number of collector unit in ports (default = 1)
-gpgpu_operand_collector_num_out_ports_mem                    1 # number of collector unit in ports (default = 1)
-gpgpu_operand_collector_num_out_ports_gen                    0 # number of collector unit in ports (default = 0)
-gpgpu_coalesce_arch                   13 # Coalescing arch (GT200 = 13, Fermi = 20)
-gpgpu_num_sched_per_core                    2 # Number of warp schedulers per core
-gpgpu_max_insn_issue_per_warp                    2 # Max number of instructions that can be issued per warp in one cycle by scheduler (either 1 or 2)
-gpgpu_dual_issue_diff_exec_units                    1 # should dual issue use two different execution unit resources (Default = 1)
-gpgpu_simt_core_sim_order                    1 # Select the simulation order of cores in a cluster (0=Fix, 1=Round-Robin)
-gpgpu_pipeline_widths 4,0,0,1,1,4,0,0,1,1,6 # Pipeline widths ID_OC_SP,ID_OC_DP,ID_OC_INT,ID_OC_SFU,ID_OC_MEM,OC_EX_SP,OC_EX_DP,OC_EX_INT,OC_EX_SFU,OC_EX_MEM,EX_WB,ID_OC_TENSOR_CORE,OC_EX_TENSOR_CORE
-gpgpu_tensor_core_avail                    0 # Tensor Core Available (default=0)
-gpgpu_num_sp_units                     4 # Number of SP units (default=1)
-gpgpu_num_dp_units                     0 # Number of DP units (default=0)
-gpgpu_num_int_units                    0 # Number of INT units (default=0)
-gpgpu_num_sfu_units                    1 # Number of SF units (default=1)
-gpgpu_num_tensor_core_units                    0 # Number of tensor_core units (default=1)
-gpgpu_num_mem_units                    1 # Number if ldst units (default=1) WARNING: not hooked up to anything
-gpgpu_scheduler                      gto # Scheduler configuration: < lrr | gto | two_level_active > If two_level_active:<num_active_warps>:<inner_prioritization>:<outer_prioritization>For complete list of prioritization values see shader.h enum scheduler_prioritization_typeDefault: gto
-gpgpu_concurrent_kernel_sm                    0 # Support concurrent kernels on a SM (default = disabled)
-gpgpu_perfect_inst_const_cache                    0 # perfect inst and const cache mode, so all inst and const hits in the cache(default = disabled)
-gpgpu_inst_fetch_throughput                    1 # the number of fetched intruction per warp each cycle
-gpgpu_reg_file_port_throughput                    1 # the number ports of the register file
-specialized_unit_1         0,4,4,4,4,BRA # specialized unit config {<enabled>,<num_units>:<latency>:<initiation>,<ID_OC_SPEC>:<OC_EX_SPEC>,<NAME>}
-specialized_unit_2         0,4,4,4,4,BRA # specialized unit config {<enabled>,<num_units>:<latency>:<initiation>,<ID_OC_SPEC>:<OC_EX_SPEC>,<NAME>}
-specialized_unit_3         0,4,4,4,4,BRA # specialized unit config {<enabled>,<num_units>:<latency>:<initiation>,<ID_OC_SPEC>:<OC_EX_SPEC>,<NAME>}
-specialized_unit_4         0,4,4,4,4,BRA # specialized unit config {<enabled>,<num_units>:<latency>:<initiation>,<ID_OC_SPEC>:<OC_EX_SPEC>,<NAME>}
-specialized_unit_5         0,4,4,4,4,BRA # specialized unit config {<enabled>,<num_units>:<latency>:<initiation>,<ID_OC_SPEC>:<OC_EX_SPEC>,<NAME>}
-specialized_unit_6         0,4,4,4,4,BRA # specialized unit config {<enabled>,<num_units>:<latency>:<initiation>,<ID_OC_SPEC>:<OC_EX_SPEC>,<NAME>}
-specialized_unit_7         0,4,4,4,4,BRA # specialized unit config {<enabled>,<num_units>:<latency>:<initiation>,<ID_OC_SPEC>:<OC_EX_SPEC>,<NAME>}
-specialized_unit_8         0,4,4,4,4,BRA # specialized unit config {<enabled>,<num_units>:<latency>:<initiation>,<ID_OC_SPEC>:<OC_EX_SPEC>,<NAME>}
-gpgpu_perf_sim_memcpy                    1 # Fill the L2 cache on memcpy
-gpgpu_simple_dram_model                    0 # simple_dram_model with fixed latency and BW
-gpgpu_dram_scheduler                    1 # 0 = fifo, 1 = FR-FCFS (defaul)
-gpgpu_dram_partition_queues              8:8:8:8 # i2$:$2d:d2$:$2i
-l2_ideal                               0 # Use a ideal L2 cache that always hit
-gpgpu_cache:dl2     N:64:128:16,L:B:m:W:L,A:1024:1024,4:0,32 # unified banked L2 data cache config  {<nsets>:<bsize>:<assoc>,<rep>:<wr>:<alloc>:<wr_alloc>,<mshr>:<N>:<merge>,<mq>}
-gpgpu_cache:dl2_texture_only                    0 # L2 cache used for texture only
-gpgpu_n_mem                            8 # number of memory modules (e.g. memory controllers) in gpu
-gpgpu_n_sub_partition_per_mchannel                    2 # number of memory subpartition in each memory module
-gpgpu_n_mem_per_ctrlr                    1 # number of memory chips per memory controller
-gpgpu_memlatency_stat                   14 # track and display latency statistics 0x2 enables MC, 0x4 enables queue logs
-gpgpu_frfcfs_dram_sched_queue_size                   64 # 0 = unlimited (default); # entries per chip
-gpgpu_dram_return_queue_size                  116 # 0 = unlimited (default); # entries per chip
-gpgpu_dram_buswidth                    4 # default = 4 bytes (8 bytes per cycle at DDR)
-gpgpu_dram_burst_length                    8 # Burst length of each DRAM request (default = 4 data bus cycle)
-dram_data_command_freq_ratio                    4 # Frequency ratio between DRAM data bus and command bus (default = 2 times, i.e. DDR)
-gpgpu_dram_timing_opt nbk=16:CCD=2:RRD=6:RCD=12:RAS=28:RP=12:RC=40: CL=12:WL=4:CDLR=5:WR=12:nbkgrp=1:CCDL=0:RTPL=0 # DRAM timing parameters = {nbk:tCCD:tRRD:tRCD:tRAS:tRP:tRC:CL:WL:tCDLR:tWR:nbkgrp:tCCDL:tRTPL}
-gpgpu_l2_rop_latency                  120 # ROP queue latency (default 85)
-dram_latency                         100 # DRAM latency (default 30)
-dram_dual_bus_interface                    0 # dual_bus_interface (default = 0) 
-dram_bnk_indexing_policy                    0 # dram_bnk_indexing_policy (0 = normal indexing, 1 = Xoring with the higher bits) (Default = 0)
-dram_bnkgrp_indexing_policy                    0 # dram_bnkgrp_indexing_policy (0 = take higher bits, 1 = take lower bits) (Default = 0)
-dram_seperate_write_queue_enable                    0 # Seperate_Write_Queue_Enable
-dram_write_queue_size             32:28:16 # Write_Queue_Size
-dram_elimnate_rw_turnaround                    0 # elimnate_rw_turnaround i.e set tWTR and tRTW = 0
-icnt_flit_size                        32 # icnt_flit_size
-gpgpu_mem_addr_mapping dramid@8;00000000.00000000.00000000.00000000.0000RRRR.RRRRRRRR.RBBBCCCC.BCCSSSSS # mapping memory address to dram model {dramid@<start bit>;<memory address map>}
-gpgpu_mem_addr_test                    0 # run sweep test to check address mapping for aliased address
-gpgpu_mem_address_mask                    1 # 0 = old addressing mask, 1 = new addressing mask, 2 = new add. mask + flipped bank sel and chip sel bits
-gpgpu_memory_partition_indexing                    0 # 0 = no indexing, 1 = bitwise xoring, 2 = IPoly, 3 = custom indexing
-accelwattch_xml_file accelwattch_sass_sim.xml # AccelWattch XML file
-power_simulation_enabled                    0 # Turn on power simulator (1=On, 0=Off)
-power_per_cycle_dump                    0 # Dump detailed power output each cycle
-hw_perf_file_name            hw_perf.csv # Hardware Performance Statistics file
-hw_perf_bench_name                       # Kernel Name in Hardware Performance Statistics file
-power_simulation_mode                    0 # Switch performance counter input for power simulation (0=Sim, 1=HW, 2=HW-Sim Hybrid)
-dvfs_enabled                           0 # Turn on DVFS for power model
-aggregate_power_stats                    0 # Accumulate power across all kernels
-accelwattch_hybrid_perfsim_L1_RH                    0 # Get L1 Read Hits for Accelwattch-Hybrid from Accel-Sim
-accelwattch_hybrid_perfsim_L1_RM                    0 # Get L1 Read Misses for Accelwattch-Hybrid from Accel-Sim
-accelwattch_hybrid_perfsim_L1_WH                    0 # Get L1 Write Hits for Accelwattch-Hybrid from Accel-Sim
-accelwattch_hybrid_perfsim_L1_WM                    0 # Get L1 Write Misses for Accelwattch-Hybrid from Accel-Sim
-accelwattch_hybrid_perfsim_L2_RH                    0 # Get L2 Read Hits for Accelwattch-Hybrid from Accel-Sim
-accelwattch_hybrid_perfsim_L2_RM                    0 # Get L2 Read Misses for Accelwattch-Hybrid from Accel-Sim
-accelwattch_hybrid_perfsim_L2_WH                    0 # Get L2 Write Hits for Accelwattch-Hybrid from Accel-Sim
-accelwattch_hybrid_perfsim_L2_WM                    0 # Get L2 Write Misses for Accelwattch-Hybrid from Accel-Sim
-accelwattch_hybrid_perfsim_CC_ACC                    0 # Get Constant Cache Acesses for Accelwattch-Hybrid from Accel-Sim
-accelwattch_hybrid_perfsim_SHARED_ACC                    0 # Get Shared Memory Acesses for Accelwattch-Hybrid from Accel-Sim
-accelwattch_hybrid_perfsim_DRAM_RD                    0 # Get DRAM Reads for Accelwattch-Hybrid from Accel-Sim
-accelwattch_hybrid_perfsim_DRAM_WR                    0 # Get DRAM Writes for Accelwattch-Hybrid from Accel-Sim
-accelwattch_hybrid_perfsim_NOC                    0 # Get Interconnect Acesses for Accelwattch-Hybrid from Accel-Sim
-accelwattch_hybrid_perfsim_PIPE_DUTY                    0 # Get Pipeline Duty Cycle Acesses for Accelwattch-Hybrid from Accel-Sim
-accelwattch_hybrid_perfsim_NUM_SM_IDLE                    0 # Get Number of Idle SMs for Accelwattch-Hybrid from Accel-Sim
-accelwattch_hybrid_perfsim_CYCLES                    0 # Get Executed Cycles for Accelwattch-Hybrid from Accel-Sim
-accelwattch_hybrid_perfsim_VOLTAGE                    0 # Get Chip Voltage for Accelwattch-Hybrid from Accel-Sim
-power_trace_enabled                    0 # produce a file for the power trace (1=On, 0=Off)
-power_trace_zlevel                     6 # Compression level of the power trace output log (0=no comp, 9=highest)
-steady_power_levels_enabled                    0 # produce a file for the steady power levels (1=On, 0=Off)
-steady_state_definition                  8:4 # allowed deviation:number of samples
-gpgpu_max_cycle                        0 # terminates gpu simulation early (0 = no limit)
-gpgpu_max_insn                         0 # terminates gpu simulation early (0 = no limit)
-gpgpu_max_cta                          0 # terminates gpu simulation early (0 = no limit)
-gpgpu_max_completed_cta                    0 # terminates gpu simulation early (0 = no limit)
-gpgpu_runtime_stat                   500 # display runtime statistics such as dram utilization {<freq>:<flag>}
-liveness_message_freq                    1 # Minimum number of seconds between simulation liveness messages (0 = always print)
-gpgpu_compute_capability_major                    7 # Major compute capability version number
-gpgpu_compute_capability_minor                    0 # Minor compute capability version number
-gpgpu_flush_l1_cache                    0 # Flush L1 cache at the end of each kernel call
-gpgpu_flush_l2_cache                    0 # Flush L2 cache at the end of each kernel call
-gpgpu_deadlock_detect                    1 # Stop the simulation at deadlock (1=on (default), 0=off)
-gpgpu_ptx_instruction_classification                    0 # if enabled will classify ptx instruction types per kernel (Max 255 kernels now)
-gpgpu_ptx_sim_mode                     0 # Select between Performance (default) or Functional simulation (1)
-gpgpu_clock_domains 1607.0:1607.0:1607.0:2500.0 # Clock Domain Frequencies in MhZ {<Core Clock>:<ICNT Clock>:<L2 Clock>:<DRAM Clock>}
-gpgpu_max_concurrent_kernel                   32 # maximum kernels that can run concurrently on GPU, set this value according to max resident grids for your compute capability
-gpgpu_cflog_interval                    0 # Interval between each snapshot in control flow logger
-visualizer_enabled                     0 # Turn on visualizer output (1=On, 0=Off)
-visualizer_outputfile                 NULL # Specifies the output log file for visualizer
-visualizer_zlevel                      6 # Compression level of the visualizer output log (0=no comp, 9=highest)
-gpgpu_stack_size_limit                 1024 # GPU thread stack size
-gpgpu_heap_size_limit              8388608 # GPU malloc heap size 
-gpgpu_runtime_sync_depth_limit                    2 # GPU device runtime synchronize depth
-gpgpu_runtime_pending_launch_count_limit                 2048 # GPU device runtime pending launch count
-trace_enabled                          0 # Turn on traces
-trace_components                    none # comma seperated list of traces to enable. Complete list found in trace_streams.tup. Default none
-trace_sampling_core                    0 # The core which is printed using CORE_DPRINTF. Default 0
-trace_sampling_memory_partition                   -1 # The memory partition which is printed using MEMPART_DPRINTF. Default -1 (i.e. all)
-enable_ptx_file_line_stats                    1 # Turn on PTX source line statistic profiling. (1 = On)
-ptx_line_stats_filename gpgpu_inst_stats.txt # Output file for PTX source line statistics.
-gpgpu_kernel_launch_latency                    0 # Kernel launch latency in cycles. Default: 0
-gpgpu_cdp_enabled                      0 # Turn on CDP
-gpgpu_TB_launch_latency                    0 # thread block launch latency in cycles. Default: 0
DRAM Timing Options:
nbk                                    16 # number of banks
CCD                                     2 # column to column delay
RRD                                     6 # minimal delay between activation of rows in different banks
RCD                                    12 # row to column delay
RAS                                    28 # time needed to activate row
RP                                     12 # time needed to precharge (deactivate) row
RC                                     40 # row cycle time
CDLR                                    5 # switching from write to read (changes tWTR)
WR                                     12 # last data-in to row precharge
CL                                     12 # CAS latency
WL                                      4 # Write latency
nbkgrp                                  1 # number of bank groups
CCDL                                    0 # column to column delay between accesses to different bank groups
RTPL                                    0 # read to precharge delay between accesses to different bank groups
Total number of memory sub partition = 16
addr_dec_mask[CHIP]  = 0000000000000700 	high:11 low:8
addr_dec_mask[BK]    = 0000000000038080 	high:18 low:7
addr_dec_mask[ROW]   = 000000007ffc0000 	high:31 low:18
addr_dec_mask[COL]   = 000000000000787f 	high:15 low:0
addr_dec_mask[BURST] = 000000000000001f 	high:5 low:0
sub_partition_id_mask = 0000000000000080
GPGPU-Sim uArch: clock freqs: 1607000000.000000:1607000000.000000:1607000000.000000:2500000000.000000
GPGPU-Sim uArch: clock periods: 0.00000000062227753578:0.00000000062227753578:0.00000000062227753578:0.00000000040000000000
*** Initializing Memory Statistics ***
GPGPU-Sim uArch: interconnect node map (shaderID+MemID to icntID)
GPGPU-Sim uArch: Memory nodes ID start from index: 20
GPGPU-Sim uArch:    0   1   2   3   4   5   6
GPGPU-Sim uArch:    7   8   9  10  11  12  13
GPGPU-Sim uArch:   14  15  16  17  18  19  20
GPGPU-Sim uArch:   21  22  23  24  25  26  27
GPGPU-Sim uArch:   28  29  30  31  32  33  34
GPGPU-Sim uArch:   35  36  37  38  39  40  41
GPGPU-Sim uArch:   42  43  44  45  46  47  48
GPGPU-Sim uArch:   49
GPGPU-Sim uArch: interconnect node reverse map (icntID to shaderID+MemID)
GPGPU-Sim uArch: Memory nodes start from ID: 20
GPGPU-Sim uArch:    0   1   2   3   4   5   6
GPGPU-Sim uArch:    7   8   9  10  11  12  13
GPGPU-Sim uArch:   14  15  16  17  18  19  20
GPGPU-Sim uArch:   21  22  23  24  25  26  27
GPGPU-Sim uArch:   28  29  30  31  32  33  34
GPGPU-Sim uArch:   35  36  37  38  39  40  41
GPGPU-Sim uArch:   42  43  44  45  46  47  48
GPGPU-Sim uArch:   49
2d21e28d3d4c4758c16b2fef5c9e0a4f  /benchrun/accelsim-ptx/sm6_gtx1080/cuda6-transpose/input-repeat1-dimx128-dimy128/transpose
Extracting PTX file and ptxas options    1: transpose.1.sm_30.ptx -arch=sm_30
GPGPU-Sim uArch: performance model initialization complete.
self exe links to: /benchrun/accelsim-ptx/sm6_gtx1080/cuda6-transpose/input-repeat1-dimx128-dimy128/transpose
self exe links to: /benchrun/accelsim-ptx/sm6_gtx1080/cuda6-transpose/input-repeat1-dimx128-dimy128/transpose
10.1
GPGPU-Sim PTX: __cudaRegisterFatBinary, fat_cubin_handle = 1, filename=default
self exe links to: /benchrun/accelsim-ptx/sm6_gtx1080/cuda6-transpose/input-repeat1-dimx128-dimy128/transpose
Running md5sum using "md5sum /benchrun/accelsim-ptx/sm6_gtx1080/cuda6-transpose/input-repeat1-dimx128-dimy128/transpose "
self exe links to: /benchrun/accelsim-ptx/sm6_gtx1080/cuda6-transpose/input-repeat1-dimx128-dimy128/transpose
Extracting specific PTX file named transpose.1.sm_30.ptx 
GPGPU-Sim PTX: __cudaRegisterFunction _Z22transposeCoarseGrainedPfS_ii : hostFun 0x0x5610a90038b2, fat_cubin_handle = 1
GPGPU-Sim PTX: Parsing transpose.1.sm_30.ptx
GPGPU-Sim PTX: instruction assembly for function '_Z4copyPfS_ii'...   done.
GPGPU-Sim PTX: allocating shared region for "_ZZ13copySharedMemPfS_iiE4tile" from 0x0 to 0x400 (shared memory space)
GPGPU-Sim PTX: instruction assembly for function '_Z13copySharedMemPfS_ii'...   done.
GPGPU-Sim PTX: instruction assembly for function '_Z14transposeNaivePfS_ii'...   done.
GPGPU-Sim PTX: allocating shared region for "_ZZ18transposeCoalescedPfS_iiE4tile" from 0x0 to 0x400 (shared memory space)
GPGPU-Sim PTX: instruction assembly for function '_Z18transposeCoalescedPfS_ii'...   done.
GPGPU-Sim PTX: allocating shared region for "_ZZ24transposeNoBankConflictsPfS_iiE4tile" from 0x0 to 0x440 (shared memory space)
GPGPU-Sim PTX: instruction assembly for function '_Z24transposeNoBankConflictsPfS_ii'...   done.
GPGPU-Sim PTX: allocating shared region for "_ZZ17transposeDiagonalPfS_iiE4tile" from 0x0 to 0x440 (shared memory space)
GPGPU-Sim PTX: instruction assembly for function '_Z17transposeDiagonalPfS_ii'...   done.
GPGPU-Sim PTX: allocating shared region for "_ZZ20transposeFineGrainedPfS_iiE5block" from 0x0 to 0x440 (shared memory space)
GPGPU-Sim PTX: instruction assembly for function '_Z20transposeFineGrainedPfS_ii'...   done.
GPGPU-Sim PTX: allocating shared region for "_ZZ22transposeCoarseGrainedPfS_iiE5block" from 0x0 to 0x440 (shared memory space)
GPGPU-Sim PTX: instruction assembly for function '_Z22transposeCoarseGrainedPfS_ii'...   done.
GPGPU-Sim PTX: finished parsing EMBEDDED .ptx file transpose.1.sm_30.ptx
GPGPU-Sim PTX: loading globals with explicit initializers... 
GPGPU-Sim PTX: finished loading globals (0 bytes total).
GPGPU-Sim PTX: loading constants with explicit initializers...  done.
GPGPU-Sim PTX: Loading PTXInfo from transpose.1.sm_30.ptx
GPGPU-Sim PTX: Kernel '_Z22transposeCoarseGrainedPfS_ii' : regs=10, lmem=0, smem=1088, cmem=344
GPGPU-Sim PTX: Kernel '_Z20transposeFineGrainedPfS_ii' : regs=10, lmem=0, smem=1088, cmem=344
GPGPU-Sim PTX: Kernel '_Z17transposeDiagonalPfS_ii' : regs=10, lmem=0, smem=1088, cmem=344
GPGPU-Sim PTX: Kernel '_Z24transposeNoBankConflictsPfS_ii' : regs=10, lmem=0, smem=1088, cmem=344
GPGPU-Sim PTX: Kernel '_Z18transposeCoalescedPfS_ii' : regs=10, lmem=0, smem=1024, cmem=344
GPGPU-Sim PTX: Kernel '_Z14transposeNaivePfS_ii' : regs=6, lmem=0, smem=0, cmem=344
GPGPU-Sim PTX: Kernel '_Z13copySharedMemPfS_ii' : regs=9, lmem=0, smem=1024, cmem=344
GPGPU-Sim PTX: Kernel '_Z4copyPfS_ii' : regs=6, lmem=0, smem=0, cmem=344
GPGPU-Sim PTX: __cudaRegisterFunction _Z20transposeFineGrainedPfS_ii : hostFun 0x0x5610a9003718, fat_cubin_handle = 1
GPGPU-Sim PTX: __cudaRegisterFunction _Z17transposeDiagonalPfS_ii : hostFun 0x0x5610a900357e, fat_cubin_handle = 1
GPGPU-Sim PTX: __cudaRegisterFunction _Z24transposeNoBankConflictsPfS_ii : hostFun 0x0x5610a90033e4, fat_cubin_handle = 1
GPGPU-Sim PTX: __cudaRegisterFunction _Z18transposeCoalescedPfS_ii : hostFun 0x0x5610a900324a, fat_cubin_handle = 1
GPGPU-Sim PTX: __cudaRegisterFunction _Z14transposeNaivePfS_ii : hostFun 0x0x5610a90030b0, fat_cubin_handle = 1
GPGPU-Sim PTX: __cudaRegisterFunction _Z13copySharedMemPfS_ii : hostFun 0x0x5610a9002f16, fat_cubin_handle = 1
GPGPU-Sim PTX: __cudaRegisterFunction _Z4copyPfS_ii : hostFun 0x0x5610a9002d7c, fat_cubin_handle = 1
Transpose Starting...

MapSMtoCores for SM 7.0 is undefined.  Default to use 192 Cores/SM
GPU Device 0: "GPGPU-Sim_vGPGPU-Sim Simulator Version 4.2.0 " with compute capability 7.0

MapSMtoCores for SM 7.0 is undefined.  Default to use 192 Cores/SM
> Device 0: "GPGPU-Sim_vGPGPU-Sim Simulator Version 4.2.0 "
> SM Capability 7.0 detected:
MapSMtoCores for SM 7.0 is undefined.  Default to use 192 Cores/SM
MapSMtoCores for SM 7.0 is undefined.  Default to use 192 Cores/SM
> [GPGPU-Sim_vGPGPU-Sim Simulator Version 4.2.0 ] has 20 MP(s) x 192 (Cores/MP) = 3840 (Cores)
> Compute performance scaling factor = 1.00
> MatrixSize X = 128
> MatrixSize Y = 128

Matrix size: 128x128 (8x8 tiles), tile size: 16x16, block size: 16x16

GPGPU-Sim PTX: Setting up arguments for 8 bytes starting at 0x7fffa57604a8..
GPGPU-Sim PTX: Setting up arguments for 8 bytes starting at 0x7fffa57604a0..
GPGPU-Sim PTX: Setting up arguments for 4 bytes starting at 0x7fffa576049c..
GPGPU-Sim PTX: Setting up arguments for 4 bytes starting at 0x7fffa5760498..

GPGPU-Sim PTX: cudaLaunch for 0x0x5610a9002d7c (mode=performance simulation) on stream 0
GPGPU-Sim PTX: finding reconvergence points for '_Z4copyPfS_ii'...
GPGPU-Sim PTX: Finding dominators for '_Z4copyPfS_ii'...
GPGPU-Sim PTX: Finding immediate dominators for '_Z4copyPfS_ii'...
GPGPU-Sim PTX: Finding postdominators for '_Z4copyPfS_ii'...
GPGPU-Sim PTX: Finding immediate postdominators for '_Z4copyPfS_ii'...
GPGPU-Sim PTX: pre-decoding instructions for '_Z4copyPfS_ii'...
GPGPU-Sim PTX: reconvergence points for _Z4copyPfS_ii...
GPGPU-Sim PTX: ... end of reconvergence points for _Z4copyPfS_ii
GPGPU-Sim PTX: ... done pre-decoding instructions for '_Z4copyPfS_ii'.
GPGPU-Sim PTX: pushing kernel '_Z4copyPfS_ii' to stream 0, gridDim= (8,8,1) blockDim = (16,16,1) 
GPGPU-Sim uArch: Shader 0 bind to kernel 1 '_Z4copyPfS_ii'
GPGPU-Sim uArch: CTA/core = 8, limited by: threads
GPGPU-Sim uArch: Shader 1 bind to kernel 1 '_Z4copyPfS_ii'
GPGPU-Sim uArch: Shader 2 bind to kernel 1 '_Z4copyPfS_ii'
GPGPU-Sim uArch: Shader 3 bind to kernel 1 '_Z4copyPfS_ii'
GPGPU-Sim uArch: Shader 4 bind to kernel 1 '_Z4copyPfS_ii'
GPGPU-Sim uArch: Shader 5 bind to kernel 1 '_Z4copyPfS_ii'
GPGPU-Sim uArch: Shader 6 bind to kernel 1 '_Z4copyPfS_ii'
GPGPU-Sim uArch: Shader 7 bind to kernel 1 '_Z4copyPfS_ii'
GPGPU-Sim uArch: Shader 8 bind to kernel 1 '_Z4copyPfS_ii'
GPGPU-Sim uArch: Shader 9 bind to kernel 1 '_Z4copyPfS_ii'
GPGPU-Sim uArch: Shader 10 bind to kernel 1 '_Z4copyPfS_ii'
GPGPU-Sim uArch: Shader 11 bind to kernel 1 '_Z4copyPfS_ii'
GPGPU-Sim uArch: Shader 12 bind to kernel 1 '_Z4copyPfS_ii'
GPGPU-Sim uArch: Shader 13 bind to kernel 1 '_Z4copyPfS_ii'
GPGPU-Sim uArch: Shader 14 bind to kernel 1 '_Z4copyPfS_ii'
GPGPU-Sim uArch: Shader 15 bind to kernel 1 '_Z4copyPfS_ii'
GPGPU-Sim uArch: Shader 16 bind to kernel 1 '_Z4copyPfS_ii'
GPGPU-Sim uArch: Shader 17 bind to kernel 1 '_Z4copyPfS_ii'
GPGPU-Sim uArch: Shader 18 bind to kernel 1 '_Z4copyPfS_ii'
GPGPU-Sim uArch: Shader 19 bind to kernel 1 '_Z4copyPfS_ii'
Destroy streams for kernel 1: size 0
kernel_name = _Z4copyPfS_ii 
kernel_launch_uid = 1 
gpu_sim_cycle = 2454
gpu_sim_insn = 327680
gpu_ipc =     133.5289
gpu_tot_sim_cycle = 2454
gpu_tot_sim_insn = 327680
gpu_tot_ipc =     133.5289
gpu_tot_issued_cta = 64
gpu_occupancy = 34.2377% 
gpu_tot_occupancy = 34.2377% 
max_total_param_size = 0
gpu_stall_dramfull = 3542
gpu_stall_icnt2sh    = 4682
partiton_level_parallism =       0.8590
partiton_level_parallism_total  =       0.8590
partiton_level_parallism_util =       4.8571
partiton_level_parallism_util_total  =       4.8571
L2_BW  =      44.1735 GB/Sec
L2_BW_total  =      44.1735 GB/Sec
gpu_total_sim_rate=163840

========= Core cache stats =========
L1I_cache:
	L1I_total_cache_accesses = 5120
	L1I_total_cache_misses = 1024
	L1I_total_cache_miss_rate = 0.2000
	L1I_total_cache_pending_hits = 0
	L1I_total_cache_reservation_fails = 0
L1D_cache:
	L1D_cache_core[0]: Access = 0, Miss = 0, Miss_rate = -nan, Pending_hits = 0, Reservation_fails = 0
	L1D_cache_core[1]: Access = 0, Miss = 0, Miss_rate = -nan, Pending_hits = 0, Reservation_fails = 0
	L1D_cache_core[2]: Access = 0, Miss = 0, Miss_rate = -nan, Pending_hits = 0, Reservation_fails = 0
	L1D_cache_core[3]: Access = 0, Miss = 0, Miss_rate = -nan, Pending_hits = 0, Reservation_fails = 0
	L1D_cache_core[4]: Access = 0, Miss = 0, Miss_rate = -nan, Pending_hits = 0, Reservation_fails = 0
	L1D_cache_core[5]: Access = 0, Miss = 0, Miss_rate = -nan, Pending_hits = 0, Reservation_fails = 0
	L1D_cache_core[6]: Access = 0, Miss = 0, Miss_rate = -nan, Pending_hits = 0, Reservation_fails = 0
	L1D_cache_core[7]: Access = 0, Miss = 0, Miss_rate = -nan, Pending_hits = 0, Reservation_fails = 0
	L1D_cache_core[8]: Access = 0, Miss = 0, Miss_rate = -nan, Pending_hits = 0, Reservation_fails = 0
	L1D_cache_core[9]: Access = 0, Miss = 0, Miss_rate = -nan, Pending_hits = 0, Reservation_fails = 0
	L1D_cache_core[10]: Access = 0, Miss = 0, Miss_rate = -nan, Pending_hits = 0, Reservation_fails = 0
	L1D_cache_core[11]: Access = 0, Miss = 0, Miss_rate = -nan, Pending_hits = 0, Reservation_fails = 0
	L1D_cache_core[12]: Access = 0, Miss = 0, Miss_rate = -nan, Pending_hits = 0, Reservation_fails = 0
	L1D_cache_core[13]: Access = 0, Miss = 0, Miss_rate = -nan, Pending_hits = 0, Reservation_fails = 0
	L1D_cache_core[14]: Access = 0, Miss = 0, Miss_rate = -nan, Pending_hits = 0, Reservation_fails = 0
	L1D_cache_core[15]: Access = 0, Miss = 0, Miss_rate = -nan, Pending_hits = 0, Reservation_fails = 0
	L1D_cache_core[16]: Access = 0, Miss = 0, Miss_rate = -nan, Pending_hits = 0, Reservation_fails = 0
	L1D_cache_core[17]: Access = 0, Miss = 0, Miss_rate = -nan, Pending_hits = 0, Reservation_fails = 0
	L1D_cache_core[18]: Access = 0, Miss = 0, Miss_rate = -nan, Pending_hits = 0, Reservation_fails = 0
	L1D_cache_core[19]: Access = 0, Miss = 0, Miss_rate = -nan, Pending_hits = 0, Reservation_fails = 0
	L1D_total_cache_accesses = 0
	L1D_total_cache_misses = 0
	L1D_total_cache_pending_hits = 0
	L1D_total_cache_reservation_fails = 0
	L1D_cache_data_port_util = 0.000
	L1D_cache_fill_port_util = 0.000
L1C_cache:
	L1C_total_cache_accesses = 1536
	L1C_total_cache_misses = 1280
	L1C_total_cache_miss_rate = 0.8333
	L1C_total_cache_pending_hits = 0
	L1C_total_cache_reservation_fails = 2976
L1T_cache:
	L1T_total_cache_accesses = 0
	L1T_total_cache_misses = 0
	L1T_total_cache_pending_hits = 0
	L1T_total_cache_reservation_fails = 0

Total_core_cache_stats:
	Total_core_cache_stats_breakdown[GLOBAL_ACC_R][HIT] = 0
	Total_core_cache_stats_breakdown[GLOBAL_ACC_R][HIT_RESERVED] = 0
	Total_core_cache_stats_breakdown[GLOBAL_ACC_R][MISS] = 0
	Total_core_cache_stats_breakdown[GLOBAL_ACC_R][RESERVATION_FAIL] = 0
	Total_core_cache_stats_breakdown[GLOBAL_ACC_R][SECTOR_MISS] = 0
	Total_core_cache_stats_breakdown[GLOBAL_ACC_R][MSHR_HIT] = 0
	Total_core_cache_stats_breakdown[LOCAL_ACC_R][HIT] = 0
	Total_core_cache_stats_breakdown[LOCAL_ACC_R][HIT_RESERVED] = 0
	Total_core_cache_stats_breakdown[LOCAL_ACC_R][MISS] = 0
	Total_core_cache_stats_breakdown[LOCAL_ACC_R][RESERVATION_FAIL] = 0
	Total_core_cache_stats_breakdown[LOCAL_ACC_R][SECTOR_MISS] = 0
	Total_core_cache_stats_breakdown[LOCAL_ACC_R][MSHR_HIT] = 0
	Total_core_cache_stats_breakdown[CONST_ACC_R][HIT] = 256
	Total_core_cache_stats_breakdown[CONST_ACC_R][HIT_RESERVED] = 0
	Total_core_cache_stats_breakdown[CONST_ACC_R][MISS] = 1280
	Total_core_cache_stats_breakdown[CONST_ACC_R][RESERVATION_FAIL] = 2976
	Total_core_cache_stats_breakdown[CONST_ACC_R][SECTOR_MISS] = 0
	Total_core_cache_stats_breakdown[CONST_ACC_R][MSHR_HIT] = 1260
	Total_core_cache_stats_breakdown[TEXTURE_ACC_R][HIT] = 0
	Total_core_cache_stats_breakdown[TEXTURE_ACC_R][HIT_RESERVED] = 0
	Total_core_cache_stats_breakdown[TEXTURE_ACC_R][MISS] = 0
	Total_core_cache_stats_breakdown[TEXTURE_ACC_R][RESERVATION_FAIL] = 0
	Total_core_cache_stats_breakdown[TEXTURE_ACC_R][SECTOR_MISS] = 0
	Total_core_cache_stats_breakdown[TEXTURE_ACC_R][MSHR_HIT] = 0
	Total_core_cache_stats_breakdown[GLOBAL_ACC_W][HIT] = 0
	Total_core_cache_stats_breakdown[GLOBAL_ACC_W][HIT_RESERVED] = 0
	Total_core_cache_stats_breakdown[GLOBAL_ACC_W][MISS] = 0
	Total_core_cache_stats_breakdown[GLOBAL_ACC_W][RESERVATION_FAIL] = 0
	Total_core_cache_stats_breakdown[GLOBAL_ACC_W][SECTOR_MISS] = 0
	Total_core_cache_stats_breakdown[GLOBAL_ACC_W][MSHR_HIT] = 0
	Total_core_cache_stats_breakdown[LOCAL_ACC_W][HIT] = 0
	Total_core_cache_stats_breakdown[LOCAL_ACC_W][HIT_RESERVED] = 0
	Total_core_cache_stats_breakdown[LOCAL_ACC_W][MISS] = 0
	Total_core_cache_stats_breakdown[LOCAL_ACC_W][RESERVATION_FAIL] = 0
	Total_core_cache_stats_breakdown[LOCAL_ACC_W][SECTOR_MISS] = 0
	Total_core_cache_stats_breakdown[LOCAL_ACC_W][MSHR_HIT] = 0
	Total_core_cache_stats_breakdown[L1_WRBK_ACC][HIT] = 0
	Total_core_cache_stats_breakdown[L1_WRBK_ACC][HIT_RESERVED] = 0
	Total_core_cache_stats_breakdown[L1_WRBK_ACC][MISS] = 0
	Total_core_cache_stats_breakdown[L1_WRBK_ACC][RESERVATION_FAIL] = 0
	Total_core_cache_stats_breakdown[L1_WRBK_ACC][SECTOR_MISS] = 0
	Total_core_cache_stats_breakdown[L1_WRBK_ACC][MSHR_HIT] = 0
	Total_core_cache_stats_breakdown[L2_WRBK_ACC][HIT] = 0
	Total_core_cache_stats_breakdown[L2_WRBK_ACC][HIT_RESERVED] = 0
	Total_core_cache_stats_breakdown[L2_WRBK_ACC][MISS] = 0
	Total_core_cache_stats_breakdown[L2_WRBK_ACC][RESERVATION_FAIL] = 0
	Total_core_cache_stats_breakdown[L2_WRBK_ACC][SECTOR_MISS] = 0
	Total_core_cache_stats_breakdown[L2_WRBK_ACC][MSHR_HIT] = 0
	Total_core_cache_stats_breakdown[INST_ACC_R][HIT] = 4096
	Total_core_cache_stats_breakdown[INST_ACC_R][HIT_RESERVED] = 0
	Total_core_cache_stats_breakdown[INST_ACC_R][MISS] = 1024
	Total_core_cache_stats_breakdown[INST_ACC_R][RESERVATION_FAIL] = 0
	Total_core_cache_stats_breakdown[INST_ACC_R][SECTOR_MISS] = 0
	Total_core_cache_stats_breakdown[INST_ACC_R][MSHR_HIT] = 984
	Total_core_cache_stats_breakdown[L1_WR_ALLOC_R][HIT] = 0
	Total_core_cache_stats_breakdown[L1_WR_ALLOC_R][HIT_RESERVED] = 0
	Total_core_cache_stats_breakdown[L1_WR_ALLOC_R][MISS] = 0
	Total_core_cache_stats_breakdown[L1_WR_ALLOC_R][RESERVATION_FAIL] = 0
	Total_core_cache_stats_breakdown[L1_WR_ALLOC_R][SECTOR_MISS] = 0
	Total_core_cache_stats_breakdown[L1_WR_ALLOC_R][MSHR_HIT] = 0
	Total_core_cache_stats_breakdown[L2_WR_ALLOC_R][HIT] = 0
	Total_core_cache_stats_breakdown[L2_WR_ALLOC_R][HIT_RESERVED] = 0
	Total_core_cache_stats_breakdown[L2_WR_ALLOC_R][MISS] = 0
	Total_core_cache_stats_breakdown[L2_WR_ALLOC_R][RESERVATION_FAIL] = 0
	Total_core_cache_stats_breakdown[L2_WR_ALLOC_R][SECTOR_MISS] = 0
	Total_core_cache_stats_breakdown[L2_WR_ALLOC_R][MSHR_HIT] = 0
	Total_core_cache_stats_breakdown[CONST_ACC_R][TOTAL_ACCESS] = 1536
	Total_core_cache_stats_breakdown[INST_ACC_R][TOTAL_ACCESS] = 5120

Total_core_cache_fail_stats:
	Total_core_cache_fail_stats_breakdown[CONST_ACC_R][MSHR_MERGE_ENRTY_FAIL] = 2976
ctas_completed 64, Shader 0 warp_id issue ditsribution:
warp_id:
0, 1, 2, 3, 4, 5, 6, 7, 8, 9, 10, 11, 12, 13, 14, 15, 16, 17, 18, 19, 20, 21, 22, 23, 24, 25, 26, 27, 28, 29, 30, 31, 
distro:
23, 23, 23, 23, 23, 23, 23, 23, 23, 23, 23, 23, 23, 23, 23, 23, 23, 23, 23, 23, 23, 23, 23, 23, 23, 23, 23, 23, 23, 23, 23, 23, 
gpgpu_n_tot_thrd_icount = 327680
gpgpu_n_tot_w_icount = 10240
gpgpu_n_stall_shd_mem = 12538
gpgpu_n_mem_read_local = 0
gpgpu_n_mem_write_local = 0
gpgpu_n_mem_read_global = 1024
gpgpu_n_mem_write_global = 1024
gpgpu_n_mem_texture = 0
gpgpu_n_mem_const = 20
gpgpu_n_load_insn  = 16384
gpgpu_n_store_insn = 16384
gpgpu_n_shmem_insn = 0
gpgpu_n_sstarr_insn = 0
gpgpu_n_tex_insn = 0
gpgpu_n_const_mem_insn = 0
gpgpu_n_param_mem_insn = 49152
gpgpu_n_shmem_bkconflict = 0
gpgpu_n_cache_bkconflict = 0
gpgpu_n_intrawarp_mshr_merge = 0
gpgpu_n_cmem_portconflict = 2976
gpgpu_stall_shd_mem[c_mem][resource_stall] = 2976
gpgpu_stall_shd_mem[s_mem][bk_conf] = 0
gpgpu_stall_shd_mem[gl_mem][resource_stall] = 0
gpgpu_stall_shd_mem[gl_mem][coal_stall] = 1024
gpgpu_stall_shd_mem[gl_mem][data_port_stall] = 0
gpu_reg_bank_conflict_stalls = 0
Warp Occupancy Distribution:
Stall:5582	W0_Idle:57114	W0_Scoreboard:21000	W1:0	W2:0	W3:0	W4:0	W5:0	W6:0	W7:0	W8:0	W9:0	W10:0	W11:0	W12:0	W13:0	W14:0	W15:0	W16:0	W17:0	W18:0	W19:0	W20:0	W21:0	W22:0	W23:0	W24:0	W25:0	W26:0	W27:0	W28:0	W29:0	W30:0	W31:0	W32:10240
single_issue_nums: WS0:3584	WS1:3584	
dual_issue_nums: WS0:768	WS1:768	
traffic_breakdown_coretomem[CONST_ACC_R] = 160 {8:20,}
traffic_breakdown_coretomem[GLOBAL_ACC_R] = 8192 {8:1024,}
traffic_breakdown_coretomem[GLOBAL_ACC_W] = 73728 {72:1024,}
traffic_breakdown_coretomem[INST_ACC_R] = 320 {8:40,}
traffic_breakdown_memtocore[CONST_ACC_R] = 1440 {72:20,}
traffic_breakdown_memtocore[GLOBAL_ACC_R] = 73728 {72:1024,}
traffic_breakdown_memtocore[GLOBAL_ACC_W] = 8192 {8:1024,}
traffic_breakdown_memtocore[INST_ACC_R] = 5440 {136:40,}
maxmflatency = 958 
max_icnt2mem_latency = 398 
maxmrqlatency = 602 
max_icnt2sh_latency = 104 
averagemflatency = 344 
avg_icnt2mem_latency = 75 
avg_mrq_latency = 189 
avg_icnt2sh_latency = 27 
mrq_lat_table:80 	15 	30 	39 	84 	127 	212 	431 	480 	34 	0 	0 	0 	0 	0 	0 	0 	0 	0 	0 	0 	0 	0 	0 	0 	0 	0 	0 	0 	0 	0 	0 	
dq_lat_table:0 	0 	0 	0 	0 	0 	0 	0 	0 	0 	0 	0 	0 	0 	0 	0 	0 	0 	0 	0 	0 	0 	0 	0 	0 	0 	0 	0 	0 	0 	0 	0 	
mf_lat_table:0 	0 	0 	0 	0 	0 	0 	368 	1112 	588 	0 	0 	0 	0 	0 	0 	0 	0 	0 	0 	0 	0 	0 	0 	0 	0 	0 	0 	0 	0 	0 	0 	
icnt2mem_lat_table:0 	0 	0 	184 	584 	1019 	101 	155 	65 	0 	0 	0 	0 	0 	0 	0 	0 	0 	0 	0 	0 	0 	0 	0 	
icnt2sh_lat_table:0 	0 	0 	1055 	411 	582 	20 	0 	0 	0 	0 	0 	0 	0 	0 	0 	0 	0 	0 	0 	0 	0 	0 	0 	
mf_lat_pw_table:0 	0 	0 	0 	0 	0 	0 	1 	2 	0 	0 	0 	0 	0 	0 	0 	0 	0 	0 	0 	0 	0 	0 	0 	0 	0 	0 	0 	0 	0 	0 	0 	
maximum concurrent accesses to same row:
dram[0]:         1         0         0         0         0         0         0         0         0         0         0         0         0         0         0         0 
dram[1]:         0         0         0         0         0         0         0         0         0         0         0         0         0         0         0         0 
dram[2]:         0         0         0         0         0         0         0         0         0         0         0         0         0         0         0         0 
dram[3]:         0         0         0         0         0         0         0         0         0         0         0         0         0         0         0         0 
dram[4]:         0         0         0         0         0         0         0         0         0         0         0         0         0         0         0         0 
dram[5]:         0         0         0         0         0         0         0         0         0         0         0         0         0         0         0         0 
dram[6]:         0         0         0         0         0         0         0         0         0         0         0         0         0         0         0         0 
dram[7]:         0         0         0         0         0         0         0         0         0         0         0         0         0         0         0         0 
maximum service time to same row:
dram[0]:       271       823         0         0      1523      1435      1512      1437         0         0         0         0         0         0         0         0 
dram[1]:         0         0         0         0      1467      1458      1366      1399         0         0         0         0         0         0         0         0 
dram[2]:         0         0         0         0      1557      1543      1442      1652         0         0         0         0         0         0         0         0 
dram[3]:         0         0         0         0      1399      1410      1323      1363         0         0         0         0         0         0         0         0 
dram[4]:         0         0         0         0      1383      1478      1590      1625         0         0         0         0         0         0         0         0 
dram[5]:         0         0         0         0      1323      1323      1606      1634         0         0         0         0         0         0         0         0 
dram[6]:         0         0         0         0      1354      1422      1587      1615         0         0         0         0         0         0         0         0 
dram[7]:         0         0         0         0      1350      1327      1602      1631         0         0         0         0         0         0         0         0 
average row accesses per activate:
dram[0]:  1.000000  1.000000      -nan      -nan 48.000000 48.000000 48.000000 48.000000      -nan      -nan      -nan      -nan      -nan      -nan      -nan      -nan 
dram[1]:      -nan      -nan      -nan      -nan 48.000000 48.000000 48.000000 48.000000      -nan      -nan      -nan      -nan      -nan      -nan      -nan      -nan 
dram[2]:      -nan      -nan      -nan      -nan 48.000000 48.000000 48.000000 48.000000      -nan      -nan      -nan      -nan      -nan      -nan      -nan      -nan 
dram[3]:      -nan      -nan      -nan      -nan 48.000000 48.000000 48.000000 48.000000      -nan      -nan      -nan      -nan      -nan      -nan      -nan      -nan 
dram[4]:      -nan      -nan      -nan      -nan 48.000000 48.000000 48.000000 48.000000      -nan      -nan      -nan      -nan      -nan      -nan      -nan      -nan 
dram[5]:      -nan      -nan      -nan      -nan 48.000000 48.000000 48.000000 48.000000      -nan      -nan      -nan      -nan      -nan      -nan      -nan      -nan 
dram[6]:      -nan      -nan      -nan      -nan 45.000000 45.000000 48.000000 48.000000      -nan      -nan      -nan      -nan      -nan      -nan      -nan      -nan 
dram[7]:      -nan      -nan      -nan      -nan 48.000000 47.000000 48.000000 48.000000      -nan      -nan      -nan      -nan      -nan      -nan      -nan      -nan 
average row locality = 1532/35 = 43.771427
number of total memory accesses made:
dram[0]:         0         0         0         0         0         0         0         0         0         0         0         0         0         0         0         0 
dram[1]:         0         0         0         0         0         0         0         0         0         0         0         0         0         0         0         0 
dram[2]:         0         0         0         0         0         0         0         0         0         0         0         0         0         0         0         0 
dram[3]:         0         0         0         0         0         0         0         0         0         0         0         0         0         0         0         0 
dram[4]:         0         0         0         0         0         0         0         0         0         0         0         0         0         0         0         0 
dram[5]:         0         0         0         0         0         0         0         0         0         0         0         0         0         0         0         0 
dram[6]:         0         0         0         0         0         0         0         0         0         0         0         0         0         0         0         0 
dram[7]:         0         0         0         0         0         0         0         0         0         0         0         0         0         0         0         0 
total accesses: 0
min_bank_accesses = 0!
min_chip_accesses = 0!
number of total read accesses:
dram[0]:         8         4         0         0        64        64        64        64         0         0         0         0         0         0         0         0 
dram[1]:         0         0         0         0        64        64        64        64         0         0         0         0         0         0         0         0 
dram[2]:         0         0         0         0        64        64        64        64         0         0         0         0         0         0         0         0 
dram[3]:         0         0         0         0        64        64        64        64         0         0         0         0         0         0         0         0 
dram[4]:         0         0         0         0        64        64        64        64         0         0         0         0         0         0         0         0 
dram[5]:         0         0         0         0        64        64        64        64         0         0         0         0         0         0         0         0 
dram[6]:         0         0         0         0        64        64        64        64         0         0         0         0         0         0         0         0 
dram[7]:         0         0         0         0        64        64        64        64         0         0         0         0         0         0         0         0 
total dram reads = 2060
min_bank_accesses = 0!
chip skew: 268/256 = 1.05
number of total write accesses:
dram[0]:         0         0         0         0        64        64        64        64         0         0         0         0         0         0         0         0 
dram[1]:         0         0         0         0        64        64        64        64         0         0         0         0         0         0         0         0 
dram[2]:         0         0         0         0        64        64        64        64         0         0         0         0         0         0         0         0 
dram[3]:         0         0         0         0        64        64        64        64         0         0         0         0         0         0         0         0 
dram[4]:         0         0         0         0        64        64        64        64         0         0         0         0         0         0         0         0 
dram[5]:         0         0         0         0        64        64        64        64         0         0         0         0         0         0         0         0 
dram[6]:         0         0         0         0        58        58        64        64         0         0         0         0         0         0         0         0 
dram[7]:         0         0         0         0        64        62        64        64         0         0         0         0         0         0         0         0 
total dram writes = 2034
min_bank_accesses = 0!
chip skew: 256/244 = 1.05
average mf latency per bank:
dram[0]:       1681      1971    none      none         165       137       126       135    none      none      none      none      none      none      none      none  
dram[1]:     none      none      none      none         165       140       132       115    none      none      none      none      none      none      none      none  
dram[2]:     none      none      none      none         174       170       121       156    none      none      none      none      none      none      none      none  
dram[3]:     none      none      none      none         142       131       122       117    none      none      none      none      none      none      none      none  
dram[4]:     none      none      none      none         119       182       136       126    none      none      none      none      none      none      none      none  
dram[5]:     none      none      none      none         121       123       139       138    none      none      none      none      none      none      none      none  
dram[6]:     none      none      none      none         119       128       136       119    none      none      none      none      none      none      none      none  
dram[7]:     none      none      none      none         134       140       143       142    none      none      none      none      none      none      none      none  
maximum mf latency per bank:
dram[0]:        381       341       411       421       895       718       708       732         0         0         0         0         0         0         0         0
dram[1]:        386       386       429       419       886       799       743       649         0         0         0         0         0         0         0         0
dram[2]:        406       450       451       534       926       800       671       793         0         0         0         0         0         0         0         0
dram[3]:        332       354       364       380       788       743       709       673         0         0         0         0         0         0         0         0
dram[4]:        287       331       384       452       657       958       760       706         0         0         0         0         0         0         0         0
dram[5]:        313       319       399       393       620       651       786       723         0         0         0         0         0         0         0         0
dram[6]:        260       274       364       362       674       709       715       637         0         0         0         0         0         0         0         0
dram[7]:        346       328       423       414       677       734       812       749         0         0         0         0         0         0         0         0
Memory Partition 0: 
Cache L2_bank_000:
MSHR contents

Cache L2_bank_001:
MSHR contents

In Dram Latency Queue (total = 0): 
DRAM[0]: 16 bks, busW=4 BL=8 CL=12, tRRD=6 tCCD=2, tRCD=12 tRAS=28 tRP=12 tRC=40
n_cmd=3817 n_nop=3285 n_act=7 n_pre=1 n_ref_event=0 n_req=195 n_rd=12 n_rd_L2_A=256 n_write=256 n_wr_bk=0 bw_util=0.2746
n_activity=1570 dram_eff=0.6675
bk0: 8a 3769i bk1: 4a 3799i bk2: 0a 3819i bk3: 0a 3820i bk4: 64a 2594i bk5: 64a 2576i bk6: 64a 2646i bk7: 64a 2616i bk8: 0a 3813i bk9: 0a 3816i bk10: 0a 3816i bk11: 0a 3816i bk12: 0a 3817i bk13: 0a 3817i bk14: 0a 3817i bk15: 0a 3817i 

------------------------------------------------------------------------

Row_Buffer_Locality = 0.964103
Row_Buffer_Locality_read = 0.955224
Row_Buffer_Locality_write = 0.968750
Bank_Level_Parallism = 3.426362
Bank_Level_Parallism_Col = 3.451701
Bank_Level_Parallism_Ready = 2.400763
write_to_read_ratio_blp_rw_average = 0.518197
GrpLevelPara = 1.000000 

BW Util details:
bwutil = 0.274561 
total_CMD = 3817 
util_bw = 1048 
Wasted_Col = 432 
Wasted_Row = 12 
Idle = 2325 

BW Util Bottlenecks: 
RCDc_limit = 39 
RCDWRc_limit = 21 
WTRc_limit = 578 
RTWc_limit = 670 
CCDLc_limit = 0 
rwq = 0 
CCDLc_limit_alone = 0 
WTRc_limit_alone = 578 
RTWc_limit_alone = 670 

Commands details: 
total_CMD = 3817 
n_nop = 3285 
Read = 12 
Write = 256 
L2_Alloc = 256 
L2_WB = 0 
n_act = 7 
n_pre = 1 
n_ref = 0 
n_req = 195 
total_req = 524 

Dual Bus Interface Util: 
issued_total_row = 8 
issued_total_col = 524 
Row_Bus_Util =  0.002096 
CoL_Bus_Util = 0.137281 
Either_Row_CoL_Bus_Util = 0.139376 
Issued_on_Two_Bus_Simul_Util = 0.000000 
issued_two_Eff = 0.000000 
queue_avg = 15.159025 


dram_util_bins: 0 0 0 0 0 0 0 0 0 0
dram_eff_bins: 0 0 0 0 0 0 0 0 0 0
mrqq: max=64 avg=15.159
Memory Partition 1: 
Cache L2_bank_002:
MSHR contents

Cache L2_bank_003:
MSHR contents

In Dram Latency Queue (total = 0): 
DRAM[1]: 16 bks, busW=4 BL=8 CL=12, tRRD=6 tCCD=2, tRCD=12 tRAS=28 tRP=12 tRC=40
n_cmd=3817 n_nop=3301 n_act=4 n_pre=0 n_ref_event=0 n_req=192 n_rd=0 n_rd_L2_A=256 n_write=256 n_wr_bk=0 bw_util=0.2683
n_activity=1446 dram_eff=0.7082
bk0: 0a 3818i bk1: 0a 3819i bk2: 0a 3819i bk3: 0a 3820i bk4: 64a 2622i bk5: 64a 2603i bk6: 64a 2662i bk7: 64a 2634i bk8: 0a 3814i bk9: 0a 3814i bk10: 0a 3814i bk11: 0a 3815i bk12: 0a 3816i bk13: 0a 3817i bk14: 0a 3817i bk15: 0a 3817i 

------------------------------------------------------------------------

Row_Buffer_Locality = 0.979167
Row_Buffer_Locality_read = 1.000000
Row_Buffer_Locality_write = 0.968750
Bank_Level_Parallism = 3.497875
Bank_Level_Parallism_Col = 3.500000
Bank_Level_Parallism_Ready = 2.296875
write_to_read_ratio_blp_rw_average = 0.503073
GrpLevelPara = 1.000000 

BW Util details:
bwutil = 0.268274 
total_CMD = 3817 
util_bw = 1024 
Wasted_Col = 391 
Wasted_Row = 0 
Idle = 2402 

BW Util Bottlenecks: 
RCDc_limit = 2 
RCDWRc_limit = 26 
WTRc_limit = 620 
RTWc_limit = 630 
CCDLc_limit = 0 
rwq = 0 
CCDLc_limit_alone = 0 
WTRc_limit_alone = 620 
RTWc_limit_alone = 630 

Commands details: 
total_CMD = 3817 
n_nop = 3301 
Read = 0 
Write = 256 
L2_Alloc = 256 
L2_WB = 0 
n_act = 4 
n_pre = 0 
n_ref = 0 
n_req = 192 
total_req = 512 

Dual Bus Interface Util: 
issued_total_row = 4 
issued_total_col = 512 
Row_Bus_Util =  0.001048 
CoL_Bus_Util = 0.134137 
Either_Row_CoL_Bus_Util = 0.135185 
Issued_on_Two_Bus_Simul_Util = 0.000000 
issued_two_Eff = 0.000000 
queue_avg = 14.952843 


dram_util_bins: 0 0 0 0 0 0 0 0 0 0
dram_eff_bins: 0 0 0 0 0 0 0 0 0 0
mrqq: max=64 avg=14.9528
Memory Partition 2: 
Cache L2_bank_004:
MSHR contents

Cache L2_bank_005:
MSHR contents

In Dram Latency Queue (total = 0): 
DRAM[2]: 16 bks, busW=4 BL=8 CL=12, tRRD=6 tCCD=2, tRCD=12 tRAS=28 tRP=12 tRC=40
n_cmd=3817 n_nop=3301 n_act=4 n_pre=0 n_ref_event=0 n_req=192 n_rd=0 n_rd_L2_A=256 n_write=256 n_wr_bk=0 bw_util=0.2683
n_activity=1448 dram_eff=0.7072
bk0: 0a 3818i bk1: 0a 3819i bk2: 0a 3819i bk3: 0a 3820i bk4: 64a 2645i bk5: 64a 2633i bk6: 64a 2735i bk7: 64a 2635i bk8: 0a 3813i bk9: 0a 3814i bk10: 0a 3816i bk11: 0a 3816i bk12: 0a 3816i bk13: 0a 3817i bk14: 0a 3817i bk15: 0a 3817i 

------------------------------------------------------------------------

Row_Buffer_Locality = 0.979167
Row_Buffer_Locality_read = 1.000000
Row_Buffer_Locality_write = 0.968750
Bank_Level_Parallism = 3.376140
Bank_Level_Parallism_Col = 3.378074
Bank_Level_Parallism_Ready = 2.248047
write_to_read_ratio_blp_rw_average = 0.520145
GrpLevelPara = 1.000000 

BW Util details:
bwutil = 0.268274 
total_CMD = 3817 
util_bw = 1024 
Wasted_Col = 403 
Wasted_Row = 0 
Idle = 2390 

BW Util Bottlenecks: 
RCDc_limit = 1 
RCDWRc_limit = 17 
WTRc_limit = 576 
RTWc_limit = 660 
CCDLc_limit = 0 
rwq = 0 
CCDLc_limit_alone = 0 
WTRc_limit_alone = 576 
RTWc_limit_alone = 660 

Commands details: 
total_CMD = 3817 
n_nop = 3301 
Read = 0 
Write = 256 
L2_Alloc = 256 
L2_WB = 0 
n_act = 4 
n_pre = 0 
n_ref = 0 
n_req = 192 
total_req = 512 

Dual Bus Interface Util: 
issued_total_row = 4 
issued_total_col = 512 
Row_Bus_Util =  0.001048 
CoL_Bus_Util = 0.134137 
Either_Row_CoL_Bus_Util = 0.135185 
Issued_on_Two_Bus_Simul_Util = 0.000000 
issued_two_Eff = 0.000000 
queue_avg = 16.599686 


dram_util_bins: 0 0 0 0 0 0 0 0 0 0
dram_eff_bins: 0 0 0 0 0 0 0 0 0 0
mrqq: max=64 avg=16.5997
Memory Partition 3: 
Cache L2_bank_006:
MSHR contents

Cache L2_bank_007:
MSHR contents

In Dram Latency Queue (total = 0): 
DRAM[3]: 16 bks, busW=4 BL=8 CL=12, tRRD=6 tCCD=2, tRCD=12 tRAS=28 tRP=12 tRC=40
n_cmd=3817 n_nop=3301 n_act=4 n_pre=0 n_ref_event=0 n_req=192 n_rd=0 n_rd_L2_A=256 n_write=256 n_wr_bk=0 bw_util=0.2683
n_activity=1455 dram_eff=0.7038
bk0: 0a 3818i bk1: 0a 3819i bk2: 0a 3819i bk3: 0a 3819i bk4: 64a 2649i bk5: 64a 2640i bk6: 64a 2643i bk7: 64a 2622i bk8: 0a 3814i bk9: 0a 3814i bk10: 0a 3814i bk11: 0a 3814i bk12: 0a 3816i bk13: 0a 3817i bk14: 0a 3818i bk15: 0a 3818i 

------------------------------------------------------------------------

Row_Buffer_Locality = 0.979167
Row_Buffer_Locality_read = 1.000000
Row_Buffer_Locality_write = 0.968750
Bank_Level_Parallism = 3.442807
Bank_Level_Parallism_Col = 3.442416
Bank_Level_Parallism_Ready = 2.320312
write_to_read_ratio_blp_rw_average = 0.522530
GrpLevelPara = 1.000000 

BW Util details:
bwutil = 0.268274 
total_CMD = 3817 
util_bw = 1024 
Wasted_Col = 404 
Wasted_Row = 0 
Idle = 2389 

BW Util Bottlenecks: 
RCDc_limit = 1 
RCDWRc_limit = 28 
WTRc_limit = 597 
RTWc_limit = 661 
CCDLc_limit = 0 
rwq = 0 
CCDLc_limit_alone = 0 
WTRc_limit_alone = 597 
RTWc_limit_alone = 661 

Commands details: 
total_CMD = 3817 
n_nop = 3301 
Read = 0 
Write = 256 
L2_Alloc = 256 
L2_WB = 0 
n_act = 4 
n_pre = 0 
n_ref = 0 
n_req = 192 
total_req = 512 

Dual Bus Interface Util: 
issued_total_row = 4 
issued_total_col = 512 
Row_Bus_Util =  0.001048 
CoL_Bus_Util = 0.134137 
Either_Row_CoL_Bus_Util = 0.135185 
Issued_on_Two_Bus_Simul_Util = 0.000000 
issued_two_Eff = 0.000000 
queue_avg = 13.243123 


dram_util_bins: 0 0 0 0 0 0 0 0 0 0
dram_eff_bins: 0 0 0 0 0 0 0 0 0 0
mrqq: max=64 avg=13.2431
Memory Partition 4: 
Cache L2_bank_008:
MSHR contents

Cache L2_bank_009:
MSHR contents

In Dram Latency Queue (total = 0): 
DRAM[4]: 16 bks, busW=4 BL=8 CL=12, tRRD=6 tCCD=2, tRCD=12 tRAS=28 tRP=12 tRC=40
n_cmd=3817 n_nop=3301 n_act=4 n_pre=0 n_ref_event=0 n_req=192 n_rd=0 n_rd_L2_A=256 n_write=256 n_wr_bk=0 bw_util=0.2683
n_activity=1556 dram_eff=0.6581
bk0: 0a 3818i bk1: 0a 3819i bk2: 0a 3820i bk3: 0a 3820i bk4: 64a 2969i bk5: 64a 2713i bk6: 64a 2696i bk7: 64a 2706i bk8: 0a 3813i bk9: 0a 3814i bk10: 0a 3815i bk11: 0a 3815i bk12: 0a 3815i bk13: 0a 3815i bk14: 0a 3818i bk15: 0a 3818i 

------------------------------------------------------------------------

Row_Buffer_Locality = 0.979167
Row_Buffer_Locality_read = 1.000000
Row_Buffer_Locality_write = 0.968750
Bank_Level_Parallism = 2.866885
Bank_Level_Parallism_Col = 2.866710
Bank_Level_Parallism_Ready = 2.136719
write_to_read_ratio_blp_rw_average = 0.535511
GrpLevelPara = 1.000000 

BW Util details:
bwutil = 0.268274 
total_CMD = 3817 
util_bw = 1024 
Wasted_Col = 504 
Wasted_Row = 0 
Idle = 2289 

BW Util Bottlenecks: 
RCDc_limit = 3 
RCDWRc_limit = 20 
WTRc_limit = 582 
RTWc_limit = 650 
CCDLc_limit = 0 
rwq = 0 
CCDLc_limit_alone = 0 
WTRc_limit_alone = 582 
RTWc_limit_alone = 650 

Commands details: 
total_CMD = 3817 
n_nop = 3301 
Read = 0 
Write = 256 
L2_Alloc = 256 
L2_WB = 0 
n_act = 4 
n_pre = 0 
n_ref = 0 
n_req = 192 
total_req = 512 

Dual Bus Interface Util: 
issued_total_row = 4 
issued_total_col = 512 
Row_Bus_Util =  0.001048 
CoL_Bus_Util = 0.134137 
Either_Row_CoL_Bus_Util = 0.135185 
Issued_on_Two_Bus_Simul_Util = 0.000000 
issued_two_Eff = 0.000000 
queue_avg = 15.898350 


dram_util_bins: 0 0 0 0 0 0 0 0 0 0
dram_eff_bins: 0 0 0 0 0 0 0 0 0 0
mrqq: max=64 avg=15.8983
Memory Partition 5: 
Cache L2_bank_010:
MSHR contents

Cache L2_bank_011:
MSHR contents

In Dram Latency Queue (total = 0): 
DRAM[5]: 16 bks, busW=4 BL=8 CL=12, tRRD=6 tCCD=2, tRCD=12 tRAS=28 tRP=12 tRC=40
n_cmd=3817 n_nop=3301 n_act=4 n_pre=0 n_ref_event=0 n_req=192 n_rd=0 n_rd_L2_A=256 n_write=256 n_wr_bk=0 bw_util=0.2683
n_activity=1525 dram_eff=0.6715
bk0: 0a 3817i bk1: 0a 3818i bk2: 0a 3818i bk3: 0a 3818i bk4: 64a 2805i bk5: 64a 2768i bk6: 64a 2734i bk7: 64a 2729i bk8: 0a 3815i bk9: 0a 3816i bk10: 0a 3816i bk11: 0a 3817i bk12: 0a 3817i bk13: 0a 3817i bk14: 0a 3817i bk15: 0a 3817i 

------------------------------------------------------------------------

Row_Buffer_Locality = 0.979167
Row_Buffer_Locality_read = 1.000000
Row_Buffer_Locality_write = 0.968750
Bank_Level_Parallism = 2.957191
Bank_Level_Parallism_Col = 2.952477
Bank_Level_Parallism_Ready = 2.080078
write_to_read_ratio_blp_rw_average = 0.518797
GrpLevelPara = 1.000000 

BW Util details:
bwutil = 0.268274 
total_CMD = 3817 
util_bw = 1024 
Wasted_Col = 474 
Wasted_Row = 0 
Idle = 2319 

BW Util Bottlenecks: 
RCDc_limit = 3 
RCDWRc_limit = 22 
WTRc_limit = 593 
RTWc_limit = 660 
CCDLc_limit = 0 
rwq = 0 
CCDLc_limit_alone = 0 
WTRc_limit_alone = 593 
RTWc_limit_alone = 660 

Commands details: 
total_CMD = 3817 
n_nop = 3301 
Read = 0 
Write = 256 
L2_Alloc = 256 
L2_WB = 0 
n_act = 4 
n_pre = 0 
n_ref = 0 
n_req = 192 
total_req = 512 

Dual Bus Interface Util: 
issued_total_row = 4 
issued_total_col = 512 
Row_Bus_Util =  0.001048 
CoL_Bus_Util = 0.134137 
Either_Row_CoL_Bus_Util = 0.135185 
Issued_on_Two_Bus_Simul_Util = 0.000000 
issued_two_Eff = 0.000000 
queue_avg = 14.157716 


dram_util_bins: 0 0 0 0 0 0 0 0 0 0
dram_eff_bins: 0 0 0 0 0 0 0 0 0 0
mrqq: max=64 avg=14.1577
Memory Partition 6: 
Cache L2_bank_012:
MSHR contents

Cache L2_bank_013:
MSHR contents

In Dram Latency Queue (total = 0): 
DRAM[6]: 16 bks, busW=4 BL=8 CL=12, tRRD=6 tCCD=2, tRCD=12 tRAS=28 tRP=12 tRC=40
n_cmd=3817 n_nop=3313 n_act=4 n_pre=0 n_ref_event=0 n_req=186 n_rd=0 n_rd_L2_A=256 n_write=244 n_wr_bk=0 bw_util=0.262
n_activity=1516 dram_eff=0.6596
bk0: 0a 3819i bk1: 0a 3820i bk2: 0a 3820i bk3: 0a 3821i bk4: 64a 2902i bk5: 64a 2834i bk6: 64a 2774i bk7: 64a 2761i bk8: 0a 3813i bk9: 0a 3814i bk10: 0a 3814i bk11: 0a 3814i bk12: 0a 3814i bk13: 0a 3815i bk14: 0a 3818i bk15: 0a 3818i 

------------------------------------------------------------------------

Row_Buffer_Locality = 0.978495
Row_Buffer_Locality_read = 1.000000
Row_Buffer_Locality_write = 0.967213
Bank_Level_Parallism = 2.773572
Bank_Level_Parallism_Col = 2.771429
Bank_Level_Parallism_Ready = 2.048000
write_to_read_ratio_blp_rw_average = 0.527796
GrpLevelPara = 1.000000 

BW Util details:
bwutil = 0.261986 
total_CMD = 3817 
util_bw = 1000 
Wasted_Col = 507 
Wasted_Row = 0 
Idle = 2310 

BW Util Bottlenecks: 
RCDc_limit = 2 
RCDWRc_limit = 20 
WTRc_limit = 582 
RTWc_limit = 660 
CCDLc_limit = 0 
rwq = 0 
CCDLc_limit_alone = 0 
WTRc_limit_alone = 582 
RTWc_limit_alone = 660 

Commands details: 
total_CMD = 3817 
n_nop = 3313 
Read = 0 
Write = 244 
L2_Alloc = 256 
L2_WB = 0 
n_act = 4 
n_pre = 0 
n_ref = 0 
n_req = 186 
total_req = 500 

Dual Bus Interface Util: 
issued_total_row = 4 
issued_total_col = 500 
Row_Bus_Util =  0.001048 
CoL_Bus_Util = 0.130993 
Either_Row_CoL_Bus_Util = 0.132041 
Issued_on_Two_Bus_Simul_Util = 0.000000 
issued_two_Eff = 0.000000 
queue_avg = 13.000262 


dram_util_bins: 0 0 0 0 0 0 0 0 0 0
dram_eff_bins: 0 0 0 0 0 0 0 0 0 0
mrqq: max=64 avg=13.0003
Memory Partition 7: 
Cache L2_bank_014:
MSHR contents

Cache L2_bank_015:
MSHR contents

In Dram Latency Queue (total = 0): 
DRAM[7]: 16 bks, busW=4 BL=8 CL=12, tRRD=6 tCCD=2, tRCD=12 tRAS=28 tRP=12 tRC=40
n_cmd=3817 n_nop=3303 n_act=4 n_pre=0 n_ref_event=0 n_req=191 n_rd=0 n_rd_L2_A=256 n_write=254 n_wr_bk=0 bw_util=0.2672
n_activity=1492 dram_eff=0.6836
bk0: 0a 3817i bk1: 0a 3819i bk2: 0a 3821i bk3: 0a 3821i bk4: 64a 2798i bk5: 64a 2756i bk6: 64a 2687i bk7: 64a 2694i bk8: 0a 3814i bk9: 0a 3814i bk10: 0a 3814i bk11: 0a 3815i bk12: 0a 3815i bk13: 0a 3816i bk14: 0a 3817i bk15: 0a 3817i 

------------------------------------------------------------------------

Row_Buffer_Locality = 0.979058
Row_Buffer_Locality_read = 1.000000
Row_Buffer_Locality_write = 0.968504
Bank_Level_Parallism = 3.110117
Bank_Level_Parallism_Col = 3.111647
Bank_Level_Parallism_Ready = 2.143137
write_to_read_ratio_blp_rw_average = 0.515794
GrpLevelPara = 1.000000 

BW Util details:
bwutil = 0.267226 
total_CMD = 3817 
util_bw = 1020 
Wasted_Col = 437 
Wasted_Row = 0 
Idle = 2360 

BW Util Bottlenecks: 
RCDc_limit = 2 
RCDWRc_limit = 12 
WTRc_limit = 577 
RTWc_limit = 653 
CCDLc_limit = 0 
rwq = 0 
CCDLc_limit_alone = 0 
WTRc_limit_alone = 577 
RTWc_limit_alone = 653 

Commands details: 
total_CMD = 3817 
n_nop = 3303 
Read = 0 
Write = 254 
L2_Alloc = 256 
L2_WB = 0 
n_act = 4 
n_pre = 0 
n_ref = 0 
n_req = 191 
total_req = 510 

Dual Bus Interface Util: 
issued_total_row = 4 
issued_total_col = 510 
Row_Bus_Util =  0.001048 
CoL_Bus_Util = 0.133613 
Either_Row_CoL_Bus_Util = 0.134661 
Issued_on_Two_Bus_Simul_Util = 0.000000 
issued_two_Eff = 0.000000 
queue_avg = 15.170553 


dram_util_bins: 0 0 0 0 0 0 0 0 0 0
dram_eff_bins: 0 0 0 0 0 0 0 0 0 0
mrqq: max=64 avg=15.1706

========= L2 cache stats =========
L2_cache_bank[0]: Access = 168, Miss = 34, Miss_rate = 0.202, Pending_hits = 70, Reservation_fails = 1
L2_cache_bank[1]: Access = 148, Miss = 33, Miss_rate = 0.223, Pending_hits = 51, Reservation_fails = 3
L2_cache_bank[2]: Access = 128, Miss = 32, Miss_rate = 0.250, Pending_hits = 32, Reservation_fails = 4
L2_cache_bank[3]: Access = 128, Miss = 32, Miss_rate = 0.250, Pending_hits = 32, Reservation_fails = 0
L2_cache_bank[4]: Access = 128, Miss = 32, Miss_rate = 0.250, Pending_hits = 32, Reservation_fails = 4
L2_cache_bank[5]: Access = 128, Miss = 32, Miss_rate = 0.250, Pending_hits = 32, Reservation_fails = 4
L2_cache_bank[6]: Access = 128, Miss = 32, Miss_rate = 0.250, Pending_hits = 32, Reservation_fails = 4
L2_cache_bank[7]: Access = 128, Miss = 32, Miss_rate = 0.250, Pending_hits = 32, Reservation_fails = 0
L2_cache_bank[8]: Access = 128, Miss = 32, Miss_rate = 0.250, Pending_hits = 32, Reservation_fails = 2
L2_cache_bank[9]: Access = 128, Miss = 32, Miss_rate = 0.250, Pending_hits = 32, Reservation_fails = 7
L2_cache_bank[10]: Access = 128, Miss = 32, Miss_rate = 0.250, Pending_hits = 32, Reservation_fails = 0
L2_cache_bank[11]: Access = 128, Miss = 32, Miss_rate = 0.250, Pending_hits = 32, Reservation_fails = 0
L2_cache_bank[12]: Access = 128, Miss = 32, Miss_rate = 0.250, Pending_hits = 29, Reservation_fails = 0
L2_cache_bank[13]: Access = 128, Miss = 32, Miss_rate = 0.250, Pending_hits = 29, Reservation_fails = 4
L2_cache_bank[14]: Access = 128, Miss = 32, Miss_rate = 0.250, Pending_hits = 32, Reservation_fails = 1
L2_cache_bank[15]: Access = 128, Miss = 32, Miss_rate = 0.250, Pending_hits = 31, Reservation_fails = 3
L2_total_cache_accesses = 2108
L2_total_cache_misses = 515
L2_total_cache_miss_rate = 0.2443
L2_total_cache_pending_hits = 562
L2_total_cache_reservation_fails = 37
L2_total_cache_breakdown:
	L2_cache_stats_breakdown[GLOBAL_ACC_R][HIT] = 1024
	L2_cache_stats_breakdown[GLOBAL_ACC_R][HIT_RESERVED] = 0
	L2_cache_stats_breakdown[GLOBAL_ACC_R][MISS] = 0
	L2_cache_stats_breakdown[GLOBAL_ACC_R][RESERVATION_FAIL] = 0
	L2_cache_stats_breakdown[GLOBAL_ACC_R][SECTOR_MISS] = 0
	L2_cache_stats_breakdown[GLOBAL_ACC_R][MSHR_HIT] = 0
	L2_cache_stats_breakdown[LOCAL_ACC_R][HIT] = 0
	L2_cache_stats_breakdown[LOCAL_ACC_R][HIT_RESERVED] = 0
	L2_cache_stats_breakdown[LOCAL_ACC_R][MISS] = 0
	L2_cache_stats_breakdown[LOCAL_ACC_R][RESERVATION_FAIL] = 0
	L2_cache_stats_breakdown[LOCAL_ACC_R][SECTOR_MISS] = 0
	L2_cache_stats_breakdown[LOCAL_ACC_R][MSHR_HIT] = 0
	L2_cache_stats_breakdown[CONST_ACC_R][HIT] = 0
	L2_cache_stats_breakdown[CONST_ACC_R][HIT_RESERVED] = 19
	L2_cache_stats_breakdown[CONST_ACC_R][MISS] = 1
	L2_cache_stats_breakdown[CONST_ACC_R][RESERVATION_FAIL] = 0
	L2_cache_stats_breakdown[CONST_ACC_R][SECTOR_MISS] = 0
	L2_cache_stats_breakdown[CONST_ACC_R][MSHR_HIT] = 19
	L2_cache_stats_breakdown[TEXTURE_ACC_R][HIT] = 0
	L2_cache_stats_breakdown[TEXTURE_ACC_R][HIT_RESERVED] = 0
	L2_cache_stats_breakdown[TEXTURE_ACC_R][MISS] = 0
	L2_cache_stats_breakdown[TEXTURE_ACC_R][RESERVATION_FAIL] = 0
	L2_cache_stats_breakdown[TEXTURE_ACC_R][SECTOR_MISS] = 0
	L2_cache_stats_breakdown[TEXTURE_ACC_R][MSHR_HIT] = 0
	L2_cache_stats_breakdown[GLOBAL_ACC_W][HIT] = 7
	L2_cache_stats_breakdown[GLOBAL_ACC_W][HIT_RESERVED] = 505
	L2_cache_stats_breakdown[GLOBAL_ACC_W][MISS] = 512
	L2_cache_stats_breakdown[GLOBAL_ACC_W][RESERVATION_FAIL] = 37
	L2_cache_stats_breakdown[GLOBAL_ACC_W][SECTOR_MISS] = 0
	L2_cache_stats_breakdown[GLOBAL_ACC_W][MSHR_HIT] = 0
	L2_cache_stats_breakdown[LOCAL_ACC_W][HIT] = 0
	L2_cache_stats_breakdown[LOCAL_ACC_W][HIT_RESERVED] = 0
	L2_cache_stats_breakdown[LOCAL_ACC_W][MISS] = 0
	L2_cache_stats_breakdown[LOCAL_ACC_W][RESERVATION_FAIL] = 0
	L2_cache_stats_breakdown[LOCAL_ACC_W][SECTOR_MISS] = 0
	L2_cache_stats_breakdown[LOCAL_ACC_W][MSHR_HIT] = 0
	L2_cache_stats_breakdown[L1_WRBK_ACC][HIT] = 0
	L2_cache_stats_breakdown[L1_WRBK_ACC][HIT_RESERVED] = 0
	L2_cache_stats_breakdown[L1_WRBK_ACC][MISS] = 0
	L2_cache_stats_breakdown[L1_WRBK_ACC][RESERVATION_FAIL] = 0
	L2_cache_stats_breakdown[L1_WRBK_ACC][SECTOR_MISS] = 0
	L2_cache_stats_breakdown[L1_WRBK_ACC][MSHR_HIT] = 0
	L2_cache_stats_breakdown[L2_WRBK_ACC][HIT] = 0
	L2_cache_stats_breakdown[L2_WRBK_ACC][HIT_RESERVED] = 0
	L2_cache_stats_breakdown[L2_WRBK_ACC][MISS] = 0
	L2_cache_stats_breakdown[L2_WRBK_ACC][RESERVATION_FAIL] = 0
	L2_cache_stats_breakdown[L2_WRBK_ACC][SECTOR_MISS] = 0
	L2_cache_stats_breakdown[L2_WRBK_ACC][MSHR_HIT] = 0
	L2_cache_stats_breakdown[INST_ACC_R][HIT] = 0
	L2_cache_stats_breakdown[INST_ACC_R][HIT_RESERVED] = 38
	L2_cache_stats_breakdown[INST_ACC_R][MISS] = 2
	L2_cache_stats_breakdown[INST_ACC_R][RESERVATION_FAIL] = 0
	L2_cache_stats_breakdown[INST_ACC_R][SECTOR_MISS] = 0
	L2_cache_stats_breakdown[INST_ACC_R][MSHR_HIT] = 38
	L2_cache_stats_breakdown[L1_WR_ALLOC_R][HIT] = 0
	L2_cache_stats_breakdown[L1_WR_ALLOC_R][HIT_RESERVED] = 0
	L2_cache_stats_breakdown[L1_WR_ALLOC_R][MISS] = 0
	L2_cache_stats_breakdown[L1_WR_ALLOC_R][RESERVATION_FAIL] = 0
	L2_cache_stats_breakdown[L1_WR_ALLOC_R][SECTOR_MISS] = 0
	L2_cache_stats_breakdown[L1_WR_ALLOC_R][MSHR_HIT] = 0
	L2_cache_stats_breakdown[L2_WR_ALLOC_R][HIT] = 0
	L2_cache_stats_breakdown[L2_WR_ALLOC_R][HIT_RESERVED] = 0
	L2_cache_stats_breakdown[L2_WR_ALLOC_R][MISS] = 0
	L2_cache_stats_breakdown[L2_WR_ALLOC_R][RESERVATION_FAIL] = 0
	L2_cache_stats_breakdown[L2_WR_ALLOC_R][SECTOR_MISS] = 0
	L2_cache_stats_breakdown[L2_WR_ALLOC_R][MSHR_HIT] = 505
	L2_cache_stats_breakdown[GLOBAL_ACC_R][TOTAL_ACCESS] = 1024
	L2_cache_stats_breakdown[CONST_ACC_R][TOTAL_ACCESS] = 20
	L2_cache_stats_breakdown[GLOBAL_ACC_W][TOTAL_ACCESS] = 1024
	L2_cache_stats_breakdown[INST_ACC_R][TOTAL_ACCESS] = 40
L2_total_cache_reservation_fail_breakdown:
	L2_cache_stats_fail_breakdown[GLOBAL_ACC_W][MISS_QUEUE_FULL] = 37
L2_cache_data_port_util = 0.053
L2_cache_fill_port_util = 0.052

icnt_total_pkts_mem_to_simt=4356
icnt_total_pkts_simt_to_mem=4156
LD_mem_lat_dist  0 0 0 0 0 0 0 0 0 0 0 0 0 0 0 0 0 0 0 0 0 0 0 0 0 0 0
ST_mem_lat_dist  0 0 0 0 0 0 0 0 0 0 0 0 0 0 0 0 0 0 0 0 0 0 0 0 0 0 0
----------------------------Interconnect-DETAILS--------------------------------
Class 0:
Packet latency average = 32.1779
	minimum = 6
	maximum = 341
Network latency average = 21.1006
	minimum = 6
	maximum = 326
Slowest packet = 1407
Flit latency average = 21.2224
	minimum = 6
	maximum = 322
Slowest flit = 2135
Fragmentation average = 0.239564
	minimum = 0
	maximum = 305
Injected packet rate average = 0.0343602
	minimum = 0 (at node 36)
	maximum = 0.0684597 (at node 20)
Accepted packet rate average = 0.0343602
	minimum = 0 (at node 36)
	maximum = 0.0684597 (at node 20)
Injected flit rate average = 0.0693725
	minimum = 0 (at node 36)
	maximum = 0.169519 (at node 20)
Accepted flit rate average= 0.0693725
	minimum = 0 (at node 36)
	maximum = 0.120619 (at node 20)
Injected packet length average = 2.01898
Accepted packet length average = 2.01898
Total in-flight flits = 0 (0 measured)
====== Overall Traffic Statistics ======
====== Traffic class 0 ======
Packet latency average = 32.1779 (1 samples)
	minimum = 6 (1 samples)
	maximum = 341 (1 samples)
Network latency average = 21.1006 (1 samples)
	minimum = 6 (1 samples)
	maximum = 326 (1 samples)
Flit latency average = 21.2224 (1 samples)
	minimum = 6 (1 samples)
	maximum = 322 (1 samples)
Fragmentation average = 0.239564 (1 samples)
	minimum = 0 (1 samples)
	maximum = 305 (1 samples)
Injected packet rate average = 0.0343602 (1 samples)
[...]
WTRc_limit_alone = 620 
RTWc_limit_alone = 630 

Commands details: 
total_CMD = 46479 
n_nop = 45953 
Read = 8 
Write = 256 
L2_Alloc = 256 
L2_WB = 0 
n_act = 6 
n_pre = 0 
n_ref = 0 
n_req = 194 
total_req = 520 

Dual Bus Interface Util: 
issued_total_row = 6 
issued_total_col = 520 
Row_Bus_Util =  0.000129 
CoL_Bus_Util = 0.011188 
Either_Row_CoL_Bus_Util = 0.011317 
Issued_on_Two_Bus_Simul_Util = 0.000000 
issued_two_Eff = 0.000000 
queue_avg = 1.227974 


dram_util_bins: 0 0 0 0 0 0 0 0 0 0
dram_eff_bins: 0 0 0 0 0 0 0 0 0 0
mrqq: max=64 avg=1.22797
Memory Partition 2: 
Cache L2_bank_004:
MSHR contents

Cache L2_bank_005:
MSHR contents

In Dram Latency Queue (total = 0): 
DRAM[2]: 16 bks, busW=4 BL=8 CL=12, tRRD=6 tCCD=2, tRCD=12 tRAS=28 tRP=12 tRC=40
n_cmd=46479 n_nop=45953 n_act=6 n_pre=0 n_ref_event=0 n_req=194 n_rd=8 n_rd_L2_A=256 n_write=256 n_wr_bk=0 bw_util=0.02238
n_activity=1528 dram_eff=0.6806
bk0: 4a 46462i bk1: 4a 46463i bk2: 0a 46481i bk3: 0a 46482i bk4: 64a 45307i bk5: 64a 45295i bk6: 64a 45397i bk7: 64a 45297i bk8: 0a 46475i bk9: 0a 46476i bk10: 0a 46478i bk11: 0a 46478i bk12: 0a 46478i bk13: 0a 46479i bk14: 0a 46479i bk15: 0a 46479i 

------------------------------------------------------------------------

Row_Buffer_Locality = 0.969072
Row_Buffer_Locality_read = 0.969697
Row_Buffer_Locality_write = 0.968750
Bank_Level_Parallism = 3.314422
Bank_Level_Parallism_Col = 3.319397
Bank_Level_Parallism_Ready = 2.228846
write_to_read_ratio_blp_rw_average = 0.507311
GrpLevelPara = 1.000000 

BW Util details:
bwutil = 0.022376 
total_CMD = 46479 
util_bw = 1040 
Wasted_Col = 427 
Wasted_Row = 0 
Idle = 45012 

BW Util Bottlenecks: 
RCDc_limit = 25 
RCDWRc_limit = 17 
WTRc_limit = 576 
RTWc_limit = 660 
CCDLc_limit = 0 
rwq = 0 
CCDLc_limit_alone = 0 
WTRc_limit_alone = 576 
RTWc_limit_alone = 660 

Commands details: 
total_CMD = 46479 
n_nop = 45953 
Read = 8 
Write = 256 
L2_Alloc = 256 
L2_WB = 0 
n_act = 6 
n_pre = 0 
n_ref = 0 
n_req = 194 
total_req = 520 

Dual Bus Interface Util: 
issued_total_row = 6 
issued_total_col = 520 
Row_Bus_Util =  0.000129 
CoL_Bus_Util = 0.011188 
Either_Row_CoL_Bus_Util = 0.011317 
Issued_on_Two_Bus_Simul_Util = 0.000000 
issued_two_Eff = 0.000000 
queue_avg = 1.363218 


dram_util_bins: 0 0 0 0 0 0 0 0 0 0
dram_eff_bins: 0 0 0 0 0 0 0 0 0 0
mrqq: max=64 avg=1.36322
Memory Partition 3: 
Cache L2_bank_006:
MSHR contents

Cache L2_bank_007:
MSHR contents

In Dram Latency Queue (total = 0): 
DRAM[3]: 16 bks, busW=4 BL=8 CL=12, tRRD=6 tCCD=2, tRCD=12 tRAS=28 tRP=12 tRC=40
n_cmd=46479 n_nop=45953 n_act=6 n_pre=0 n_ref_event=0 n_req=194 n_rd=8 n_rd_L2_A=256 n_write=256 n_wr_bk=0 bw_util=0.02238
n_activity=1535 dram_eff=0.6775
bk0: 4a 46462i bk1: 4a 46462i bk2: 0a 46480i bk3: 0a 46480i bk4: 64a 45310i bk5: 64a 45301i bk6: 64a 45304i bk7: 64a 45283i bk8: 0a 46475i bk9: 0a 46477i bk10: 0a 46477i bk11: 0a 46477i bk12: 0a 46479i bk13: 0a 46480i bk14: 0a 46481i bk15: 0a 46481i 

------------------------------------------------------------------------

Row_Buffer_Locality = 0.969072
Row_Buffer_Locality_read = 0.969697
Row_Buffer_Locality_write = 0.968750
Bank_Level_Parallism = 3.379358
Bank_Level_Parallism_Col = 3.382192
Bank_Level_Parallism_Ready = 2.300000
write_to_read_ratio_blp_rw_average = 0.509646
GrpLevelPara = 1.000000 

BW Util details:
bwutil = 0.022376 
total_CMD = 46479 
util_bw = 1040 
Wasted_Col = 428 
Wasted_Row = 0 
Idle = 45011 

BW Util Bottlenecks: 
RCDc_limit = 25 
RCDWRc_limit = 28 
WTRc_limit = 597 
RTWc_limit = 661 
CCDLc_limit = 0 
rwq = 0 
CCDLc_limit_alone = 0 
WTRc_limit_alone = 597 
RTWc_limit_alone = 661 

Commands details: 
total_CMD = 46479 
n_nop = 45953 
Read = 8 
Write = 256 
L2_Alloc = 256 
L2_WB = 0 
n_act = 6 
n_pre = 0 
n_ref = 0 
n_req = 194 
total_req = 520 

Dual Bus Interface Util: 
issued_total_row = 6 
issued_total_col = 520 
Row_Bus_Util =  0.000129 
CoL_Bus_Util = 0.011188 
Either_Row_CoL_Bus_Util = 0.011317 
Issued_on_Two_Bus_Simul_Util = 0.000000 
issued_two_Eff = 0.000000 
queue_avg = 1.087566 


dram_util_bins: 0 0 0 0 0 0 0 0 0 0
dram_eff_bins: 0 0 0 0 0 0 0 0 0 0
mrqq: max=64 avg=1.08757
Memory Partition 4: 
Cache L2_bank_008:
MSHR contents

Cache L2_bank_009:
MSHR contents

In Dram Latency Queue (total = 0): 
DRAM[4]: 16 bks, busW=4 BL=8 CL=12, tRRD=6 tCCD=2, tRCD=12 tRAS=28 tRP=12 tRC=40
n_cmd=46479 n_nop=45953 n_act=6 n_pre=0 n_ref_event=0 n_req=194 n_rd=8 n_rd_L2_A=256 n_write=256 n_wr_bk=0 bw_util=0.02238
n_activity=1636 dram_eff=0.6357
bk0: 4a 46462i bk1: 4a 46462i bk2: 0a 46481i bk3: 0a 46481i bk4: 64a 45630i bk5: 64a 45374i bk6: 64a 45357i bk7: 64a 45367i bk8: 0a 46475i bk9: 0a 46476i bk10: 0a 46478i bk11: 0a 46478i bk12: 0a 46478i bk13: 0a 46478i bk14: 0a 46481i bk15: 0a 46481i 

------------------------------------------------------------------------

Row_Buffer_Locality = 0.969072
Row_Buffer_Locality_read = 0.969697
Row_Buffer_Locality_write = 0.968750
Bank_Level_Parallism = 2.821497
Bank_Level_Parallism_Col = 2.823605
Bank_Level_Parallism_Ready = 2.119231
write_to_read_ratio_blp_rw_average = 0.523145
GrpLevelPara = 1.000000 

BW Util details:
bwutil = 0.022376 
total_CMD = 46479 
util_bw = 1040 
Wasted_Col = 528 
Wasted_Row = 0 
Idle = 44911 

BW Util Bottlenecks: 
RCDc_limit = 27 
RCDWRc_limit = 20 
WTRc_limit = 582 
RTWc_limit = 650 
CCDLc_limit = 0 
rwq = 0 
CCDLc_limit_alone = 0 
WTRc_limit_alone = 582 
RTWc_limit_alone = 650 

Commands details: 
total_CMD = 46479 
n_nop = 45953 
Read = 8 
Write = 256 
L2_Alloc = 256 
L2_WB = 0 
n_act = 6 
n_pre = 0 
n_ref = 0 
n_req = 194 
total_req = 520 

Dual Bus Interface Util: 
issued_total_row = 6 
issued_total_col = 520 
Row_Bus_Util =  0.000129 
CoL_Bus_Util = 0.011188 
Either_Row_CoL_Bus_Util = 0.011317 
Issued_on_Two_Bus_Simul_Util = 0.000000 
issued_two_Eff = 0.000000 
queue_avg = 1.305622 


dram_util_bins: 0 0 0 0 0 0 0 0 0 0
dram_eff_bins: 0 0 0 0 0 0 0 0 0 0
mrqq: max=64 avg=1.30562
Memory Partition 5: 
Cache L2_bank_010:
MSHR contents

Cache L2_bank_011:
MSHR contents

In Dram Latency Queue (total = 0): 
DRAM[5]: 16 bks, busW=4 BL=8 CL=12, tRRD=6 tCCD=2, tRCD=12 tRAS=28 tRP=12 tRC=40
n_cmd=46479 n_nop=45953 n_act=6 n_pre=0 n_ref_event=0 n_req=194 n_rd=8 n_rd_L2_A=256 n_write=256 n_wr_bk=0 bw_util=0.02238
n_activity=1605 dram_eff=0.648
bk0: 4a 46461i bk1: 4a 46462i bk2: 0a 46480i bk3: 0a 46480i bk4: 64a 45467i bk5: 64a 45430i bk6: 64a 45396i bk7: 64a 45391i bk8: 0a 46477i bk9: 0a 46478i bk10: 0a 46478i bk11: 0a 46479i bk12: 0a 46479i bk13: 0a 46479i bk14: 0a 46479i bk15: 0a 46479i 

------------------------------------------------------------------------

Row_Buffer_Locality = 0.969072
Row_Buffer_Locality_read = 0.969697
Row_Buffer_Locality_write = 0.968750
Bank_Level_Parallism = 2.908676
Bank_Level_Parallism_Col = 2.906536
Bank_Level_Parallism_Ready = 2.063462
write_to_read_ratio_blp_rw_average = 0.506590
GrpLevelPara = 1.000000 

BW Util details:
bwutil = 0.022376 
total_CMD = 46479 
util_bw = 1040 
Wasted_Col = 498 
Wasted_Row = 0 
Idle = 44941 

BW Util Bottlenecks: 
RCDc_limit = 27 
RCDWRc_limit = 22 
WTRc_limit = 593 
RTWc_limit = 660 
CCDLc_limit = 0 
rwq = 0 
CCDLc_limit_alone = 0 
WTRc_limit_alone = 593 
RTWc_limit_alone = 660 

Commands details: 
total_CMD = 46479 
n_nop = 45953 
Read = 8 
Write = 256 
L2_Alloc = 256 
L2_WB = 0 
n_act = 6 
n_pre = 0 
n_ref = 0 
n_req = 194 
total_req = 520 

Dual Bus Interface Util: 
issued_total_row = 6 
issued_total_col = 520 
Row_Bus_Util =  0.000129 
CoL_Bus_Util = 0.011188 
Either_Row_CoL_Bus_Util = 0.011317 
Issued_on_Two_Bus_Simul_Util = 0.000000 
issued_two_Eff = 0.000000 
queue_avg = 1.162676 


dram_util_bins: 0 0 0 0 0 0 0 0 0 0
dram_eff_bins: 0 0 0 0 0 0 0 0 0 0
mrqq: max=64 avg=1.16268
Memory Partition 6: 
Cache L2_bank_012:
MSHR contents

Cache L2_bank_013:
MSHR contents

In Dram Latency Queue (total = 0): 
DRAM[6]: 16 bks, busW=4 BL=8 CL=12, tRRD=6 tCCD=2, tRCD=12 tRAS=28 tRP=12 tRC=40
n_cmd=46479 n_nop=45965 n_act=6 n_pre=0 n_ref_event=0 n_req=188 n_rd=8 n_rd_L2_A=256 n_write=244 n_wr_bk=0 bw_util=0.02186
n_activity=1596 dram_eff=0.6366
bk0: 4a 46463i bk1: 4a 46463i bk2: 0a 46481i bk3: 0a 46482i bk4: 64a 45563i bk5: 64a 45495i bk6: 64a 45435i bk7: 64a 45422i bk8: 0a 46474i bk9: 0a 46477i bk10: 0a 46477i bk11: 0a 46477i bk12: 0a 46477i bk13: 0a 46478i bk14: 0a 46481i bk15: 0a 46481i 

------------------------------------------------------------------------

Row_Buffer_Locality = 0.968085
Row_Buffer_Locality_read = 0.969697
Row_Buffer_Locality_write = 0.967213
Bank_Level_Parallism = 2.729922
Bank_Level_Parallism_Col = 2.730045
Bank_Level_Parallism_Ready = 2.031496
write_to_read_ratio_blp_rw_average = 0.515466
GrpLevelPara = 1.000000 

BW Util details:
bwutil = 0.021859 
total_CMD = 46479 
util_bw = 1016 
Wasted_Col = 531 
Wasted_Row = 0 
Idle = 44932 

BW Util Bottlenecks: 
RCDc_limit = 26 
RCDWRc_limit = 20 
WTRc_limit = 582 
RTWc_limit = 660 
CCDLc_limit = 0 
rwq = 0 
CCDLc_limit_alone = 0 
WTRc_limit_alone = 582 
RTWc_limit_alone = 660 

Commands details: 
total_CMD = 46479 
n_nop = 45965 
Read = 8 
Write = 244 
L2_Alloc = 256 
L2_WB = 0 
n_act = 6 
n_pre = 0 
n_ref = 0 
n_req = 188 
total_req = 508 

Dual Bus Interface Util: 
issued_total_row = 6 
issued_total_col = 508 
Row_Bus_Util =  0.000129 
CoL_Bus_Util = 0.010930 
Either_Row_CoL_Bus_Util = 0.011059 
Issued_on_Two_Bus_Simul_Util = 0.000000 
issued_two_Eff = 0.000000 
queue_avg = 1.067622 


dram_util_bins: 0 0 0 0 0 0 0 0 0 0
dram_eff_bins: 0 0 0 0 0 0 0 0 0 0
mrqq: max=64 avg=1.06762
Memory Partition 7: 
Cache L2_bank_014:
MSHR contents

Cache L2_bank_015:
MSHR contents

In Dram Latency Queue (total = 0): 
DRAM[7]: 16 bks, busW=4 BL=8 CL=12, tRRD=6 tCCD=2, tRCD=12 tRAS=28 tRP=12 tRC=40
n_cmd=46479 n_nop=45955 n_act=6 n_pre=0 n_ref_event=0 n_req=193 n_rd=8 n_rd_L2_A=256 n_write=254 n_wr_bk=0 bw_util=0.02229
n_activity=1572 dram_eff=0.659
bk0: 4a 46461i bk1: 4a 46462i bk2: 0a 46482i bk3: 0a 46482i bk4: 64a 45459i bk5: 64a 45417i bk6: 64a 45349i bk7: 64a 45356i bk8: 0a 46476i bk9: 0a 46476i bk10: 0a 46476i bk11: 0a 46477i bk12: 0a 46478i bk13: 0a 46479i bk14: 0a 46480i bk15: 0a 46480i 

------------------------------------------------------------------------

Row_Buffer_Locality = 0.968912
Row_Buffer_Locality_read = 0.969697
Row_Buffer_Locality_write = 0.968504
Bank_Level_Parallism = 3.056338
Bank_Level_Parallism_Col = 3.060524
Bank_Level_Parallism_Ready = 2.125483
write_to_read_ratio_blp_rw_average = 0.503306
GrpLevelPara = 1.000000 

BW Util details:
bwutil = 0.022290 
total_CMD = 46479 
util_bw = 1036 
Wasted_Col = 461 
Wasted_Row = 0 
Idle = 44982 

BW Util Bottlenecks: 
RCDc_limit = 26 
RCDWRc_limit = 12 
WTRc_limit = 577 
RTWc_limit = 653 
CCDLc_limit = 0 
rwq = 0 
CCDLc_limit_alone = 0 
WTRc_limit_alone = 577 
RTWc_limit_alone = 653 

Commands details: 
total_CMD = 46479 
n_nop = 45955 
Read = 8 
Write = 254 
L2_Alloc = 256 
L2_WB = 0 
n_act = 6 
n_pre = 0 
n_ref = 0 
n_req = 193 
total_req = 518 

Dual Bus Interface Util: 
issued_total_row = 6 
issued_total_col = 518 
Row_Bus_Util =  0.000129 
CoL_Bus_Util = 0.011145 
Either_Row_CoL_Bus_Util = 0.011274 
Issued_on_Two_Bus_Simul_Util = 0.000000 
issued_two_Eff = 0.000000 
queue_avg = 1.245853 


dram_util_bins: 0 0 0 0 0 0 0 0 0 0
dram_eff_bins: 0 0 0 0 0 0 0 0 0 0
mrqq: max=64 avg=1.24585

========= L2 cache stats =========
L2_cache_bank[0]: Access = 3004, Miss = 35, Miss_rate = 0.012, Pending_hits = 87, Reservation_fails = 1
L2_cache_bank[1]: Access = 2964, Miss = 33, Miss_rate = 0.011, Pending_hits = 51, Reservation_fails = 3
L2_cache_bank[2]: Access = 2964, Miss = 33, Miss_rate = 0.011, Pending_hits = 51, Reservation_fails = 4
L2_cache_bank[3]: Access = 2964, Miss = 33, Miss_rate = 0.011, Pending_hits = 39, Reservation_fails = 0
L2_cache_bank[4]: Access = 2964, Miss = 33, Miss_rate = 0.011, Pending_hits = 51, Reservation_fails = 4
L2_cache_bank[5]: Access = 2964, Miss = 33, Miss_rate = 0.011, Pending_hits = 51, Reservation_fails = 4
L2_cache_bank[6]: Access = 2964, Miss = 33, Miss_rate = 0.011, Pending_hits = 51, Reservation_fails = 4
L2_cache_bank[7]: Access = 2964, Miss = 33, Miss_rate = 0.011, Pending_hits = 51, Reservation_fails = 0
L2_cache_bank[8]: Access = 2964, Miss = 33, Miss_rate = 0.011, Pending_hits = 51, Reservation_fails = 2
L2_cache_bank[9]: Access = 2964, Miss = 33, Miss_rate = 0.011, Pending_hits = 47, Reservation_fails = 7
L2_cache_bank[10]: Access = 2964, Miss = 33, Miss_rate = 0.011, Pending_hits = 51, Reservation_fails = 0
L2_cache_bank[11]: Access = 2964, Miss = 33, Miss_rate = 0.011, Pending_hits = 47, Reservation_fails = 0
L2_cache_bank[12]: Access = 2964, Miss = 33, Miss_rate = 0.011, Pending_hits = 48, Reservation_fails = 0
L2_cache_bank[13]: Access = 2964, Miss = 33, Miss_rate = 0.011, Pending_hits = 48, Reservation_fails = 4
L2_cache_bank[14]: Access = 2964, Miss = 33, Miss_rate = 0.011, Pending_hits = 51, Reservation_fails = 1
L2_cache_bank[15]: Access = 2964, Miss = 33, Miss_rate = 0.011, Pending_hits = 50, Reservation_fails = 3
L2_total_cache_accesses = 47464
L2_total_cache_misses = 530
L2_total_cache_miss_rate = 0.0112
L2_total_cache_pending_hits = 825
L2_total_cache_reservation_fails = 37
L2_total_cache_breakdown:
	L2_cache_stats_breakdown[GLOBAL_ACC_R][HIT] = 16384
	L2_cache_stats_breakdown[GLOBAL_ACC_R][HIT_RESERVED] = 0
	L2_cache_stats_breakdown[GLOBAL_ACC_R][MISS] = 0
	L2_cache_stats_breakdown[GLOBAL_ACC_R][RESERVATION_FAIL] = 0
	L2_cache_stats_breakdown[GLOBAL_ACC_R][SECTOR_MISS] = 0
	L2_cache_stats_breakdown[GLOBAL_ACC_R][MSHR_HIT] = 0
	L2_cache_stats_breakdown[LOCAL_ACC_R][HIT] = 0
	L2_cache_stats_breakdown[LOCAL_ACC_R][HIT_RESERVED] = 0
	L2_cache_stats_breakdown[LOCAL_ACC_R][MISS] = 0
	L2_cache_stats_breakdown[LOCAL_ACC_R][RESERVATION_FAIL] = 0
	L2_cache_stats_breakdown[LOCAL_ACC_R][SECTOR_MISS] = 0
	L2_cache_stats_breakdown[LOCAL_ACC_R][MSHR_HIT] = 0
	L2_cache_stats_breakdown[CONST_ACC_R][HIT] = 0
	L2_cache_stats_breakdown[CONST_ACC_R][HIT_RESERVED] = 19
	L2_cache_stats_breakdown[CONST_ACC_R][MISS] = 1
	L2_cache_stats_breakdown[CONST_ACC_R][RESERVATION_FAIL] = 0
	L2_cache_stats_breakdown[CONST_ACC_R][SECTOR_MISS] = 0
	L2_cache_stats_breakdown[CONST_ACC_R][MSHR_HIT] = 19
	L2_cache_stats_breakdown[TEXTURE_ACC_R][HIT] = 0
	L2_cache_stats_breakdown[TEXTURE_ACC_R][HIT_RESERVED] = 0
	L2_cache_stats_breakdown[TEXTURE_ACC_R][MISS] = 0
	L2_cache_stats_breakdown[TEXTURE_ACC_R][RESERVATION_FAIL] = 0
	L2_cache_stats_breakdown[TEXTURE_ACC_R][SECTOR_MISS] = 0
	L2_cache_stats_breakdown[TEXTURE_ACC_R][MSHR_HIT] = 0
	L2_cache_stats_breakdown[GLOBAL_ACC_W][HIT] = 29703
	L2_cache_stats_breakdown[GLOBAL_ACC_W][HIT_RESERVED] = 505
	L2_cache_stats_breakdown[GLOBAL_ACC_W][MISS] = 512
	L2_cache_stats_breakdown[GLOBAL_ACC_W][RESERVATION_FAIL] = 37
	L2_cache_stats_breakdown[GLOBAL_ACC_W][SECTOR_MISS] = 0
	L2_cache_stats_breakdown[GLOBAL_ACC_W][MSHR_HIT] = 0
	L2_cache_stats_breakdown[LOCAL_ACC_W][HIT] = 0
	L2_cache_stats_breakdown[LOCAL_ACC_W][HIT_RESERVED] = 0
	L2_cache_stats_breakdown[LOCAL_ACC_W][MISS] = 0
	L2_cache_stats_breakdown[LOCAL_ACC_W][RESERVATION_FAIL] = 0
	L2_cache_stats_breakdown[LOCAL_ACC_W][SECTOR_MISS] = 0
	L2_cache_stats_breakdown[LOCAL_ACC_W][MSHR_HIT] = 0
	L2_cache_stats_breakdown[L1_WRBK_ACC][HIT] = 0
	L2_cache_stats_breakdown[L1_WRBK_ACC][HIT_RESERVED] = 0
	L2_cache_stats_breakdown[L1_WRBK_ACC][MISS] = 0
	L2_cache_stats_breakdown[L1_WRBK_ACC][RESERVATION_FAIL] = 0
	L2_cache_stats_breakdown[L1_WRBK_ACC][SECTOR_MISS] = 0
	L2_cache_stats_breakdown[L1_WRBK_ACC][MSHR_HIT] = 0
	L2_cache_stats_breakdown[L2_WRBK_ACC][HIT] = 0
	L2_cache_stats_breakdown[L2_WRBK_ACC][HIT_RESERVED] = 0
	L2_cache_stats_breakdown[L2_WRBK_ACC][MISS] = 0
	L2_cache_stats_breakdown[L2_WRBK_ACC][RESERVATION_FAIL] = 0
	L2_cache_stats_breakdown[L2_WRBK_ACC][SECTOR_MISS] = 0
	L2_cache_stats_breakdown[L2_WRBK_ACC][MSHR_HIT] = 0
	L2_cache_stats_breakdown[INST_ACC_R][HIT] = 22
	L2_cache_stats_breakdown[INST_ACC_R][HIT_RESERVED] = 301
	L2_cache_stats_breakdown[INST_ACC_R][MISS] = 17
	L2_cache_stats_breakdown[INST_ACC_R][RESERVATION_FAIL] = 0
	L2_cache_stats_breakdown[INST_ACC_R][SECTOR_MISS] = 0
	L2_cache_stats_breakdown[INST_ACC_R][MSHR_HIT] = 301
	L2_cache_stats_breakdown[L1_WR_ALLOC_R][HIT] = 0
	L2_cache_stats_breakdown[L1_WR_ALLOC_R][HIT_RESERVED] = 0
	L2_cache_stats_breakdown[L1_WR_ALLOC_R][MISS] = 0
	L2_cache_stats_breakdown[L1_WR_ALLOC_R][RESERVATION_FAIL] = 0
	L2_cache_stats_breakdown[L1_WR_ALLOC_R][SECTOR_MISS] = 0
	L2_cache_stats_breakdown[L1_WR_ALLOC_R][MSHR_HIT] = 0
	L2_cache_stats_breakdown[L2_WR_ALLOC_R][HIT] = 0
	L2_cache_stats_breakdown[L2_WR_ALLOC_R][HIT_RESERVED] = 0
	L2_cache_stats_breakdown[L2_WR_ALLOC_R][MISS] = 0
	L2_cache_stats_breakdown[L2_WR_ALLOC_R][RESERVATION_FAIL] = 0
	L2_cache_stats_breakdown[L2_WR_ALLOC_R][SECTOR_MISS] = 0
	L2_cache_stats_breakdown[L2_WR_ALLOC_R][MSHR_HIT] = 505
	L2_cache_stats_breakdown[GLOBAL_ACC_R][TOTAL_ACCESS] = 16384
	L2_cache_stats_breakdown[CONST_ACC_R][TOTAL_ACCESS] = 20
	L2_cache_stats_breakdown[GLOBAL_ACC_W][TOTAL_ACCESS] = 30720
	L2_cache_stats_breakdown[INST_ACC_R][TOTAL_ACCESS] = 340
L2_total_cache_reservation_fail_breakdown:
	L2_cache_stats_fail_breakdown[GLOBAL_ACC_W][MISS_QUEUE_FULL] = 37
L2_cache_data_port_util = 0.159
L2_cache_fill_port_util = 0.004

icnt_total_pkts_mem_to_simt=81632
icnt_total_pkts_simt_to_mem=92520
LD_mem_lat_dist  0 0 0 0 0 0 0 0 0 0 0 0 0 0 0 0 0 0 0 0 0 0 0 0 0 0 0
ST_mem_lat_dist  0 0 0 0 0 0 0 0 0 0 0 0 0 0 0 0 0 0 0 0 0 0 0 0 0 0 0
----------------------------Interconnect-DETAILS--------------------------------
Class 0:
Packet latency average = 19.5615
	minimum = 6
	maximum = 104
Network latency average = 14.147
	minimum = 6
	maximum = 96
Slowest packet = 92797
Flit latency average = 14.3887
	minimum = 6
	maximum = 94
Slowest flit = 169807
Fragmentation average = 0.0612793
	minimum = 0
	maximum = 57
Injected packet rate average = 0.0668735
	minimum = 0 (at node 36)
	maximum = 0.10449 (at node 0)
Accepted packet rate average = 0.0668735
	minimum = 0 (at node 36)
	maximum = 0.10449 (at node 0)
Injected flit rate average = 0.133747
	minimum = 0 (at node 36)
	maximum = 0.20898 (at node 0)
Accepted flit rate average= 0.133747
	minimum = 0 (at node 36)
	maximum = 0.20898 (at node 0)
Injected packet length average = 2
Accepted packet length average = 2
Total in-flight flits = 0 (0 measured)
====== Overall Traffic Statistics ======
====== Traffic class 0 ======
Packet latency average = 26.0093 (16 samples)
	minimum = 6 (16 samples)
	maximum = 197.438 (16 samples)
Network latency average = 17.3514 (16 samples)
	minimum = 6 (16 samples)
	maximum = 166.5 (16 samples)
Flit latency average = 17.5437 (16 samples)
	minimum = 6 (16 samples)
	maximum = 164.812 (16 samples)
Fragmentation average = 0.0978683 (16 samples)
	minimum = 0 (16 samples)
	maximum = 71.3125 (16 samples)
Injected packet rate average = 0.0619963 (16 samples)
	minimum = 0 (16 samples)
	maximum = 0.101486 (16 samples)
Accepted packet rate average = 0.0619963 (16 samples)
	minimum = 0 (16 samples)
	maximum = 0.101486 (16 samples)
Injected flit rate average = 0.119248 (16 samples)
	minimum = 0 (16 samples)
	maximum = 0.214191 (16 samples)
Accepted flit rate average = 0.119248 (16 samples)
	minimum = 0 (16 samples)
	maximum = 0.195654 (16 samples)
Injected packet size average = 1.92346 (16 samples)
Accepted packet size average = 1.92346 (16 samples)
Hops average = 1 (16 samples)
----------------------------END-of-Interconnect-DETAILS-------------------------


gpgpu_simulation_time = 0 days, 0 hrs, 0 min, 24 sec (24 sec)
gpgpu_simulation_rate = 345429 (inst/sec)
gpgpu_simulation_rate = 1245 (cycle/sec)
gpgpu_silicon_slowdown = 1290763x
event update
GPGPU-Sim API: cudaEventSynchronize ** waiting for event
GPGPU-Sim API: cudaEventSynchronize ** event detected
transpose diagonal          , Throughput = 0.0001 GB/s, Time = 1000.00000 ms, Size = 16384 fp32 elements, NumDevsUsed = 1, Workgroup = 256
Test passed
GPGPU-Sim: *** exit detected ***
