GPGPU-Sim version 4.2.0 (build gpgpu-sim_git-commit-13c67115070dc2f0876254a790d0238073ca364a-modified_590.0) configured with AccelWattch.

----------------------------------------------------------------------------
INFO - If you only care about PTX execution, ignore this message. GPGPU-Sim supports PTX execution in modern CUDA.
If you want to run PTXPLUS (sm_1x SASS) with a modern card configuration - set the envronment variable
$PTXAS_CUDA_INSTALL_PATH to point a CUDA version compabible with your card configurations (i.e. 8+ for PASCAL, 9+ for VOLTA etc..)
For example: "export $PTXAS_CUDA_INSTALL_PATH=/usr/local/cuda-9.1"

The following text describes why:
If you are using PTXPLUS, only sm_1x is supported and it requires that the app and simulator binaries are compiled in CUDA 4.2 or less.
The simulator requires it since CUDA headers desribe struct sizes in the exec which change from gen to gen.
The apps require 4.2 because new versions of CUDA tools have dropped parsing support for generating sm_1x
When running using modern config (i.e. volta) and PTXPLUS with CUDA 4.2, the $PTXAS_CUDA_INSTALL_PATH env variable is required to get proper register usage
(and hence occupancy) using a version of CUDA that knows the register usage on the real card.

----------------------------------------------------------------------------
setup_environment succeeded
Accel-Sim [build accelsim-commit-e02c99dbadefc0b9dc95317100be2a446eec142c_modified_0.0]

        *** GPGPU-Sim Simulator Version 4.2.0  [build gpgpu-sim_git-commit-13c67115070dc2f0876254a790d0238073ca364a_modified_0.0] ***


GPGPU-Sim: Configuration options:

-save_embedded_ptx                      0 # saves ptx files embedded in binary as <n>.ptx
-keep                                   0 # keep intermediate files created by GPGPU-Sim when interfacing with external programs
-gpgpu_ptx_save_converted_ptxplus                    0 # Saved converted ptxplus to a file
-gpgpu_occupancy_sm_number                   60 # The SM number to pass to ptxas when getting register usage for computing GPU occupancy. This parameter is required in the config.
-ptx_opcode_latency_int         4,13,4,5,145 # Opcode latencies for integers <ADD,MAX,MUL,MAD,DIV,SHFL>Default 1,1,19,25,145,32
-ptx_opcode_latency_fp          4,13,4,5,39 # Opcode latencies for single precision floating points <ADD,MAX,MUL,MAD,DIV>Default 1,1,1,1,30
-ptx_opcode_latency_dp         8,19,8,8,330 # Opcode latencies for double precision floating points <ADD,MAX,MUL,MAD,DIV>Default 8,8,8,8,335
-ptx_opcode_latency_sfu                    8 # Opcode latencies for SFU instructionsDefault 8
-ptx_opcode_latency_tesnor                   64 # Opcode latencies for Tensor instructionsDefault 64
-ptx_opcode_initiation_int            1,2,2,2,8 # Opcode initiation intervals for integers <ADD,MAX,MUL,MAD,DIV,SHFL>Default 1,1,4,4,32,4
-ptx_opcode_initiation_fp            1,2,1,1,4 # Opcode initiation intervals for single precision floating points <ADD,MAX,MUL,MAD,DIV>Default 1,1,1,1,5
-ptx_opcode_initiation_dp          1,2,1,1,130 # Opcode initiation intervals for double precision floating points <ADD,MAX,MUL,MAD,DIV>Default 8,8,8,8,130
-ptx_opcode_initiation_sfu                    8 # Opcode initiation intervals for sfu instructionsDefault 8
-ptx_opcode_initiation_tensor                   64 # Opcode initiation intervals for tensor instructionsDefault 64
-cdp_latency         7200,8000,100,12000,1600 # CDP API latency <cudaStreamCreateWithFlags, cudaGetParameterBufferV2_init_perWarp, cudaGetParameterBufferV2_perKernel, cudaLaunchDeviceV2_init_perWarp, cudaLaunchDevicV2_perKernel>Default 7200,8000,100,12000,1600
-network_mode                           1 # Interconnection network mode
-inter_config_file   config_fermi_islip.icnt # Interconnection network config file
-icnt_in_buffer_limit                   64 # in_buffer_limit
-icnt_out_buffer_limit                   64 # out_buffer_limit
-icnt_subnets                           2 # subnets
-icnt_arbiter_algo                      1 # arbiter_algo
-icnt_verbose                           0 # inct_verbose
-icnt_grant_cycles                      1 # grant_cycles
-gpgpu_ptx_use_cuobjdump                    1 # Use cuobjdump to extract ptx and sass from binaries
-gpgpu_experimental_lib_support                    0 # Try to extract code from cuda libraries [Broken because of unknown cudaGetExportTable]
-checkpoint_option                      0 #  checkpointing flag (0 = no checkpoint)
-checkpoint_kernel                      1 #  checkpointing during execution of which kernel (1- 1st kernel)
-checkpoint_CTA                         0 #  checkpointing after # of CTA (< less than total CTA)
-resume_option                          0 #  resume flag (0 = no resume)
-resume_kernel                          0 #  Resume from which kernel (1= 1st kernel)
-resume_CTA                             0 #  resume from which CTA 
-checkpoint_CTA_t                       0 #  resume from which CTA 
-checkpoint_insn_Y                      0 #  resume from which CTA 
-gpgpu_ptx_convert_to_ptxplus                    0 # Convert SASS (native ISA) to ptxplus and run ptxplus
-gpgpu_ptx_force_max_capability                   60 # Force maximum compute capability
-gpgpu_ptx_inst_debug_to_file                    0 # Dump executed instructions' debug information to file
-gpgpu_ptx_inst_debug_file       inst_debug.txt # Executed instructions' debug output file
-gpgpu_ptx_inst_debug_thread_uid                    1 # Thread UID for executed instructions' debug output
-gpgpu_simd_model                       1 # 1 = post-dominator
-gpgpu_shader_core_pipeline              2048:32 # shader core pipeline config, i.e., {<nthread>:<warpsize>}
-gpgpu_tex_cache:l1  N:16:128:24,L:R:m:N:L,F:128:4,128:2 # per-shader L1 texture cache  (READ-ONLY) config  {<nsets>:<bsize>:<assoc>,<rep>:<wr>:<alloc>:<wr_alloc>,<mshr>:<N>:<merge>,<mq>:<rf>}
-gpgpu_const_cache:l1 N:128:64:2,L:R:f:N:L,A:2:64,4 # per-shader L1 constant memory cache  (READ-ONLY) config  {<nsets>:<bsize>:<assoc>,<rep>:<wr>:<alloc>:<wr_alloc>,<mshr>:<N>:<merge>,<mq>} 
-gpgpu_cache:il1     N:8:128:4,L:R:f:N:L,A:2:48,4 # shader L1 instruction cache config  {<nsets>:<bsize>:<assoc>,<rep>:<wr>:<alloc>:<wr_alloc>,<mshr>:<N>:<merge>,<mq>} 
-gpgpu_cache:dl1     N:64:128:6,L:L:m:N:H,A:128:8,8 # per-shader L1 data cache config  {<nsets>:<bsize>:<assoc>,<rep>:<wr>:<alloc>:<wr_alloc>,<mshr>:<N>:<merge>,<mq> | none}
-gpgpu_l1_cache_write_ratio                    0 # L1D write ratio
-gpgpu_l1_banks                         1 # The number of L1 cache banks
-gpgpu_l1_banks_byte_interleaving                   32 # l1 banks byte interleaving granularity
-gpgpu_l1_banks_hashing_function                    0 # l1 banks hashing function
-gpgpu_l1_latency                       1 # L1 Hit Latency
-gpgpu_smem_latency                     3 # smem Latency
-gpgpu_cache:dl1PrefL1                 none # per-shader L1 data cache config  {<nsets>:<bsize>:<assoc>,<rep>:<wr>:<alloc>:<wr_alloc>,<mshr>:<N>:<merge>,<mq> | none}
-gpgpu_cache:dl1PrefShared                 none # per-shader L1 data cache config  {<nsets>:<bsize>:<assoc>,<rep>:<wr>:<alloc>:<wr_alloc>,<mshr>:<N>:<merge>,<mq> | none}
-gpgpu_gmem_skip_L1D                    1 # global memory access skip L1D cache (implements -Xptxas -dlcm=cg, default=no skip)
-gpgpu_perfect_mem                      0 # enable perfect memory mode (no cache miss)
-n_regfile_gating_group                    4 # group of lanes that should be read/written together)
-gpgpu_clock_gated_reg_file                    0 # enable clock gated reg file for power calculations
-gpgpu_clock_gated_lanes                    0 # enable clock gated lanes for power calculations
-gpgpu_shader_registers                65536 # Number of registers per shader core. Limits number of concurrent CTAs. (default 8192)
-gpgpu_registers_per_block                 8192 # Maximum number of registers per CTA. (default 8192)
-gpgpu_ignore_resources_limitation                    0 # gpgpu_ignore_resources_limitation (default 0)
-gpgpu_shader_cta                      32 # Maximum number of concurrent CTAs in shader (default 32)
-gpgpu_num_cta_barriers                   16 # Maximum number of named barriers per CTA (default 16)
-gpgpu_n_clusters                      20 # number of processing clusters
-gpgpu_n_cores_per_cluster                    1 # number of simd cores per cluster
-gpgpu_n_cluster_ejection_buffer_size                    8 # number of packets in ejection buffer
-gpgpu_n_ldst_response_buffer_size                    2 # number of response packets in ld/st unit ejection buffer
-gpgpu_shmem_per_block                49152 # Size of shared memory per thread block or CTA (default 48kB)
-gpgpu_shmem_size                   98304 # Size of shared memory per shader core (default 16kB)
-gpgpu_shmem_option                     0 # Option list of shared memory sizes
-gpgpu_unified_l1d_size                    0 # Size of unified data cache(L1D + shared memory) in KB
-gpgpu_adaptive_cache_config                    0 # adaptive_cache_config
-gpgpu_shmem_sizeDefault                16384 # Size of shared memory per shader core (default 16kB)
-gpgpu_shmem_size_PrefL1                16384 # Size of shared memory per shader core (default 16kB)
-gpgpu_shmem_size_PrefShared                16384 # Size of shared memory per shader core (default 16kB)
-gpgpu_shmem_num_banks                   32 # Number of banks in the shared memory in each shader core (default 16)
-gpgpu_shmem_limited_broadcast                    0 # Limit shared memory to do one broadcast per cycle (default on)
-gpgpu_shmem_warp_parts                    1 # Number of portions a warp is divided into for shared memory bank conflict check 
-gpgpu_mem_unit_ports                    1 # The number of memory transactions allowed per core cycle
-gpgpu_shmem_warp_parts                    1 # Number of portions a warp is divided into for shared memory bank conflict check 
-gpgpu_warpdistro_shader                   -1 # Specify which shader core to collect the warp size distribution from
-gpgpu_warp_issue_shader                    0 # Specify which shader core to collect the warp issue distribution from
-gpgpu_local_mem_map                    1 # Mapping from local memory space address to simulated GPU physical address space (default = enabled)
-gpgpu_num_reg_banks                   32 # Number of register banks (default = 8)
-gpgpu_reg_bank_use_warp_id                    0 # Use warp ID in mapping registers to banks (default = off)
-gpgpu_sub_core_model                    0 # Sub Core Volta/Pascal model (default = off)
-gpgpu_enable_specialized_operand_collector                    1 # enable_specialized_operand_collector
-gpgpu_operand_collector_num_units_sp                   20 # number of collector units (default = 4)
-gpgpu_operand_collector_num_units_dp                    0 # number of collector units (default = 0)
-gpgpu_operand_collector_num_units_sfu                    4 # number of collector units (default = 4)
-gpgpu_operand_collector_num_units_int                    0 # number of collector units (default = 0)
-gpgpu_operand_collector_num_units_tensor_core                    4 # number of collector units (default = 4)
-gpgpu_operand_collector_num_units_mem                    8 # number of collector units (default = 2)
-gpgpu_operand_collector_num_units_gen                    0 # number of collector units (default = 0)
-gpgpu_operand_collector_num_in_ports_sp                    4 # number of collector unit in ports (default = 1)
-gpgpu_operand_collector_num_in_ports_dp                    0 # number of collector unit in ports (default = 0)
-gpgpu_operand_collector_num_in_ports_sfu                    1 # number of collector unit in ports (default = 1)
-gpgpu_operand_collector_num_in_ports_int                    0 # number of collector unit in ports (default = 0)
-gpgpu_operand_collector_num_in_ports_tensor_core                    1 # number of collector unit in ports (default = 1)
-gpgpu_operand_collector_num_in_ports_mem                    1 # number of collector unit in ports (default = 1)
-gpgpu_operand_collector_num_in_ports_gen                    0 # number of collector unit in ports (default = 0)
-gpgpu_operand_collector_num_out_ports_sp                    4 # number of collector unit in ports (default = 1)
-gpgpu_operand_collector_num_out_ports_dp                    0 # number of collector unit in ports (default = 0)
-gpgpu_operand_collector_num_out_ports_sfu                    1 # number of collector unit in ports (default = 1)
-gpgpu_operand_collector_num_out_ports_int                    0 # number of collector unit in ports (default = 0)
-gpgpu_operand_collector_num_out_ports_tensor_core                    1 # number of collector unit in ports (default = 1)
-gpgpu_operand_collector_num_out_ports_mem                    1 # number of collector unit in ports (default = 1)
-gpgpu_operand_collector_num_out_ports_gen                    0 # number of collector unit in ports (default = 0)
-gpgpu_coalesce_arch                   13 # Coalescing arch (GT200 = 13, Fermi = 20)
-gpgpu_num_sched_per_core                    2 # Number of warp schedulers per core
-gpgpu_max_insn_issue_per_warp                    2 # Max number of instructions that can be issued per warp in one cycle by scheduler (either 1 or 2)
-gpgpu_dual_issue_diff_exec_units                    1 # should dual issue use two different execution unit resources (Default = 1)
-gpgpu_simt_core_sim_order                    1 # Select the simulation order of cores in a cluster (0=Fix, 1=Round-Robin)
-gpgpu_pipeline_widths 4,0,0,1,1,4,0,0,1,1,6 # Pipeline widths ID_OC_SP,ID_OC_DP,ID_OC_INT,ID_OC_SFU,ID_OC_MEM,OC_EX_SP,OC_EX_DP,OC_EX_INT,OC_EX_SFU,OC_EX_MEM,EX_WB,ID_OC_TENSOR_CORE,OC_EX_TENSOR_CORE
-gpgpu_tensor_core_avail                    0 # Tensor Core Available (default=0)
-gpgpu_num_sp_units                     4 # Number of SP units (default=1)
-gpgpu_num_dp_units                     0 # Number of DP units (default=0)
-gpgpu_num_int_units                    0 # Number of INT units (default=0)
-gpgpu_num_sfu_units                    1 # Number of SF units (default=1)
-gpgpu_num_tensor_core_units                    0 # Number of tensor_core units (default=1)
-gpgpu_num_mem_units                    1 # Number if ldst units (default=1) WARNING: not hooked up to anything
-gpgpu_scheduler                      gto # Scheduler configuration: < lrr | gto | two_level_active > If two_level_active:<num_active_warps>:<inner_prioritization>:<outer_prioritization>For complete list of prioritization values see shader.h enum scheduler_prioritization_typeDefault: gto
-gpgpu_concurrent_kernel_sm                    0 # Support concurrent kernels on a SM (default = disabled)
-gpgpu_perfect_inst_const_cache                    0 # perfect inst and const cache mode, so all inst and const hits in the cache(default = disabled)
-gpgpu_inst_fetch_throughput                    1 # the number of fetched intruction per warp each cycle
-gpgpu_reg_file_port_throughput                    1 # the number ports of the register file
-specialized_unit_1         0,4,4,4,4,BRA # specialized unit config {<enabled>,<num_units>:<latency>:<initiation>,<ID_OC_SPEC>:<OC_EX_SPEC>,<NAME>}
-specialized_unit_2         0,4,4,4,4,BRA # specialized unit config {<enabled>,<num_units>:<latency>:<initiation>,<ID_OC_SPEC>:<OC_EX_SPEC>,<NAME>}
-specialized_unit_3         0,4,4,4,4,BRA # specialized unit config {<enabled>,<num_units>:<latency>:<initiation>,<ID_OC_SPEC>:<OC_EX_SPEC>,<NAME>}
-specialized_unit_4         0,4,4,4,4,BRA # specialized unit config {<enabled>,<num_units>:<latency>:<initiation>,<ID_OC_SPEC>:<OC_EX_SPEC>,<NAME>}
-specialized_unit_5         0,4,4,4,4,BRA # specialized unit config {<enabled>,<num_units>:<latency>:<initiation>,<ID_OC_SPEC>:<OC_EX_SPEC>,<NAME>}
-specialized_unit_6         0,4,4,4,4,BRA # specialized unit config {<enabled>,<num_units>:<latency>:<initiation>,<ID_OC_SPEC>:<OC_EX_SPEC>,<NAME>}
-specialized_unit_7         0,4,4,4,4,BRA # specialized unit config {<enabled>,<num_units>:<latency>:<initiation>,<ID_OC_SPEC>:<OC_EX_SPEC>,<NAME>}
-specialized_unit_8         0,4,4,4,4,BRA # specialized unit config {<enabled>,<num_units>:<latency>:<initiation>,<ID_OC_SPEC>:<OC_EX_SPEC>,<NAME>}
-gpgpu_perf_sim_memcpy                    1 # Fill the L2 cache on memcpy
-gpgpu_simple_dram_model                    0 # simple_dram_model with fixed latency and BW
-gpgpu_dram_scheduler                    1 # 0 = fifo, 1 = FR-FCFS (defaul)
-gpgpu_dram_partition_queues              8:8:8:8 # i2$:$2d:d2$:$2i
-l2_ideal                               0 # Use a ideal L2 cache that always hit
-gpgpu_cache:dl2     N:64:128:16,L:B:m:W:L,A:1024:1024,4:0,32 # unified banked L2 data cache config  {<nsets>:<bsize>:<assoc>,<rep>:<wr>:<alloc>:<wr_alloc>,<mshr>:<N>:<merge>,<mq>}
-gpgpu_cache:dl2_texture_only                    0 # L2 cache used for texture only
-gpgpu_n_mem                            8 # number of memory modules (e.g. memory controllers) in gpu
-gpgpu_n_sub_partition_per_mchannel                    2 # number of memory subpartition in each memory module
-gpgpu_n_mem_per_ctrlr                    1 # number of memory chips per memory controller
-gpgpu_memlatency_stat                   14 # track and display latency statistics 0x2 enables MC, 0x4 enables queue logs
-gpgpu_frfcfs_dram_sched_queue_size                   64 # 0 = unlimited (default); # entries per chip
-gpgpu_dram_return_queue_size                  116 # 0 = unlimited (default); # entries per chip
-gpgpu_dram_buswidth                    4 # default = 4 bytes (8 bytes per cycle at DDR)
-gpgpu_dram_burst_length                    8 # Burst length of each DRAM request (default = 4 data bus cycle)
-dram_data_command_freq_ratio                    4 # Frequency ratio between DRAM data bus and command bus (default = 2 times, i.e. DDR)
-gpgpu_dram_timing_opt nbk=16:CCD=2:RRD=6:RCD=12:RAS=28:RP=12:RC=40: CL=12:WL=4:CDLR=5:WR=12:nbkgrp=1:CCDL=0:RTPL=0 # DRAM timing parameters = {nbk:tCCD:tRRD:tRCD:tRAS:tRP:tRC:CL:WL:tCDLR:tWR:nbkgrp:tCCDL:tRTPL}
-gpgpu_l2_rop_latency                  120 # ROP queue latency (default 85)
-dram_latency                         100 # DRAM latency (default 30)
-dram_dual_bus_interface                    0 # dual_bus_interface (default = 0) 
-dram_bnk_indexing_policy                    0 # dram_bnk_indexing_policy (0 = normal indexing, 1 = Xoring with the higher bits) (Default = 0)
-dram_bnkgrp_indexing_policy                    0 # dram_bnkgrp_indexing_policy (0 = take higher bits, 1 = take lower bits) (Default = 0)
-dram_seperate_write_queue_enable                    0 # Seperate_Write_Queue_Enable
-dram_write_queue_size             32:28:16 # Write_Queue_Size
-dram_elimnate_rw_turnaround                    0 # elimnate_rw_turnaround i.e set tWTR and tRTW = 0
-icnt_flit_size                        32 # icnt_flit_size
-gpgpu_mem_addr_mapping dramid@8;00000000.00000000.00000000.00000000.0000RRRR.RRRRRRRR.RBBBCCCC.BCCSSSSS # mapping memory address to dram model {dramid@<start bit>;<memory address map>}
-gpgpu_mem_addr_test                    0 # run sweep test to check address mapping for aliased address
-gpgpu_mem_address_mask                    1 # 0 = old addressing mask, 1 = new addressing mask, 2 = new add. mask + flipped bank sel and chip sel bits
-gpgpu_memory_partition_indexing                    0 # 0 = no indexing, 1 = bitwise xoring, 2 = IPoly, 3 = custom indexing
-accelwattch_xml_file accelwattch_sass_sim.xml # AccelWattch XML file
-power_simulation_enabled                    0 # Turn on power simulator (1=On, 0=Off)
-power_per_cycle_dump                    0 # Dump detailed power output each cycle
-hw_perf_file_name            hw_perf.csv # Hardware Performance Statistics file
-hw_perf_bench_name                       # Kernel Name in Hardware Performance Statistics file
-power_simulation_mode                    0 # Switch performance counter input for power simulation (0=Sim, 1=HW, 2=HW-Sim Hybrid)
-dvfs_enabled                           0 # Turn on DVFS for power model
-aggregate_power_stats                    0 # Accumulate power across all kernels
-accelwattch_hybrid_perfsim_L1_RH                    0 # Get L1 Read Hits for Accelwattch-Hybrid from Accel-Sim
-accelwattch_hybrid_perfsim_L1_RM                    0 # Get L1 Read Misses for Accelwattch-Hybrid from Accel-Sim
-accelwattch_hybrid_perfsim_L1_WH                    0 # Get L1 Write Hits for Accelwattch-Hybrid from Accel-Sim
-accelwattch_hybrid_perfsim_L1_WM                    0 # Get L1 Write Misses for Accelwattch-Hybrid from Accel-Sim
-accelwattch_hybrid_perfsim_L2_RH                    0 # Get L2 Read Hits for Accelwattch-Hybrid from Accel-Sim
-accelwattch_hybrid_perfsim_L2_RM                    0 # Get L2 Read Misses for Accelwattch-Hybrid from Accel-Sim
-accelwattch_hybrid_perfsim_L2_WH                    0 # Get L2 Write Hits for Accelwattch-Hybrid from Accel-Sim
-accelwattch_hybrid_perfsim_L2_WM                    0 # Get L2 Write Misses for Accelwattch-Hybrid from Accel-Sim
-accelwattch_hybrid_perfsim_CC_ACC                    0 # Get Constant Cache Acesses for Accelwattch-Hybrid from Accel-Sim
-accelwattch_hybrid_perfsim_SHARED_ACC                    0 # Get Shared Memory Acesses for Accelwattch-Hybrid from Accel-Sim
-accelwattch_hybrid_perfsim_DRAM_RD                    0 # Get DRAM Reads for Accelwattch-Hybrid from Accel-Sim
-accelwattch_hybrid_perfsim_DRAM_WR                    0 # Get DRAM Writes for Accelwattch-Hybrid from Accel-Sim
-accelwattch_hybrid_perfsim_NOC                    0 # Get Interconnect Acesses for Accelwattch-Hybrid from Accel-Sim
-accelwattch_hybrid_perfsim_PIPE_DUTY                    0 # Get Pipeline Duty Cycle Acesses for Accelwattch-Hybrid from Accel-Sim
-accelwattch_hybrid_perfsim_NUM_SM_IDLE                    0 # Get Number of Idle SMs for Accelwattch-Hybrid from Accel-Sim
-accelwattch_hybrid_perfsim_CYCLES                    0 # Get Executed Cycles for Accelwattch-Hybrid from Accel-Sim
-accelwattch_hybrid_perfsim_VOLTAGE                    0 # Get Chip Voltage for Accelwattch-Hybrid from Accel-Sim
-power_trace_enabled                    0 # produce a file for the power trace (1=On, 0=Off)
-power_trace_zlevel                     6 # Compression level of the power trace output log (0=no comp, 9=highest)
-steady_power_levels_enabled                    0 # produce a file for the steady power levels (1=On, 0=Off)
-steady_state_definition                  8:4 # allowed deviation:number of samples
-gpgpu_max_cycle                        0 # terminates gpu simulation early (0 = no limit)
-gpgpu_max_insn                         0 # terminates gpu simulation early (0 = no limit)
-gpgpu_max_cta                          0 # terminates gpu simulation early (0 = no limit)
-gpgpu_max_completed_cta                    0 # terminates gpu simulation early (0 = no limit)
-gpgpu_runtime_stat                   500 # display runtime statistics such as dram utilization {<freq>:<flag>}
-liveness_message_freq                    1 # Minimum number of seconds between simulation liveness messages (0 = always print)
-gpgpu_compute_capability_major                    7 # Major compute capability version number
-gpgpu_compute_capability_minor                    0 # Minor compute capability version number
-gpgpu_flush_l1_cache                    0 # Flush L1 cache at the end of each kernel call
-gpgpu_flush_l2_cache                    0 # Flush L2 cache at the end of each kernel call
-gpgpu_deadlock_detect                    1 # Stop the simulation at deadlock (1=on (default), 0=off)
-gpgpu_ptx_instruction_classification                    0 # if enabled will classify ptx instruction types per kernel (Max 255 kernels now)
-gpgpu_ptx_sim_mode                     0 # Select between Performance (default) or Functional simulation (1)
-gpgpu_clock_domains 1607.0:1607.0:1607.0:2500.0 # Clock Domain Frequencies in MhZ {<Core Clock>:<ICNT Clock>:<L2 Clock>:<DRAM Clock>}
-gpgpu_max_concurrent_kernel                   32 # maximum kernels that can run concurrently on GPU, set this value according to max resident grids for your compute capability
-gpgpu_cflog_interval                    0 # Interval between each snapshot in control flow logger
-visualizer_enabled                     0 # Turn on visualizer output (1=On, 0=Off)
-visualizer_outputfile                 NULL # Specifies the output log file for visualizer
-visualizer_zlevel                      6 # Compression level of the visualizer output log (0=no comp, 9=highest)
-gpgpu_stack_size_limit                 1024 # GPU thread stack size
-gpgpu_heap_size_limit              8388608 # GPU malloc heap size 
-gpgpu_runtime_sync_depth_limit                    2 # GPU device runtime synchronize depth
-gpgpu_runtime_pending_launch_count_limit                 2048 # GPU device runtime pending launch count
-trace_enabled                          0 # Turn on traces
-trace_components                    none # comma seperated list of traces to enable. Complete list found in trace_streams.tup. Default none
-trace_sampling_core                    0 # The core which is printed using CORE_DPRINTF. Default 0
-trace_sampling_memory_partition                   -1 # The memory partition which is printed using MEMPART_DPRINTF. Default -1 (i.e. all)
-enable_ptx_file_line_stats                    1 # Turn on PTX source line statistic profiling. (1 = On)
-ptx_line_stats_filename gpgpu_inst_stats.txt # Output file for PTX source line statistics.
-gpgpu_kernel_launch_latency                    0 # Kernel launch latency in cycles. Default: 0
-gpgpu_cdp_enabled                      0 # Turn on CDP
-gpgpu_TB_launch_latency                    0 # thread block launch latency in cycles. Default: 0
-trace               /benchrun/accelsim-sass/sm6_gtx1080/babelstream/input-arraysize-102400-numtimes-1/results/traces/kernelslist.g # traces kernel filetraces kernel file directory
-trace_opcode_latency_initiation_int                  4,1 # Opcode latencies and initiation for integers in trace driven mode <latency,initiation>
-trace_opcode_latency_initiation_sp                  4,1 # Opcode latencies and initiation for sp in trace driven mode <latency,initiation>
-trace_opcode_latency_initiation_dp                  4,1 # Opcode latencies and initiation for dp in trace driven mode <latency,initiation>
-trace_opcode_latency_initiation_sfu                  4,1 # Opcode latencies and initiation for sfu in trace driven mode <latency,initiation>
-trace_opcode_latency_initiation_tensor                  4,1 # Opcode latencies and initiation for tensor in trace driven mode <latency,initiation>
-trace_opcode_latency_initiation_spec_op_1                  4,4 # specialized unit config <latency,initiation>
-trace_opcode_latency_initiation_spec_op_2                  4,4 # specialized unit config <latency,initiation>
-trace_opcode_latency_initiation_spec_op_3                  4,4 # specialized unit config <latency,initiation>
-trace_opcode_latency_initiation_spec_op_4                  4,4 # specialized unit config <latency,initiation>
-trace_opcode_latency_initiation_spec_op_5                  4,4 # specialized unit config <latency,initiation>
-trace_opcode_latency_initiation_spec_op_6                  4,4 # specialized unit config <latency,initiation>
-trace_opcode_latency_initiation_spec_op_7                  4,4 # specialized unit config <latency,initiation>
-trace_opcode_latency_initiation_spec_op_8                  4,4 # specialized unit config <latency,initiation>
DRAM Timing Options:
nbk                                    16 # number of banks
CCD                                     2 # column to column delay
RRD                                     6 # minimal delay between activation of rows in different banks
RCD                                    12 # row to column delay
RAS                                    28 # time needed to activate row
RP                                     12 # time needed to precharge (deactivate) row
RC                                     40 # row cycle time
CDLR                                    5 # switching from write to read (changes tWTR)
WR                                     12 # last data-in to row precharge
CL                                     12 # CAS latency
WL                                      4 # Write latency
nbkgrp                                  1 # number of bank groups
CCDL                                    0 # column to column delay between accesses to different bank groups
RTPL                                    0 # read to precharge delay between accesses to different bank groups
Total number of memory sub partition = 16
addr_dec_mask[CHIP]  = 0000000000000700 	high:11 low:8
addr_dec_mask[BK]    = 0000000000038080 	high:18 low:7
addr_dec_mask[ROW]   = 000000007ffc0000 	high:31 low:18
addr_dec_mask[COL]   = 000000000000787f 	high:15 low:0
addr_dec_mask[BURST] = 000000000000001f 	high:5 low:0
sub_partition_id_mask = 0000000000000080
GPGPU-Sim uArch: clock freqs: 1607000000.000000:1607000000.000000:1607000000.000000:2500000000.000000
GPGPU-Sim uArch: clock periods: 0.00000000062227753578:0.00000000062227753578:0.00000000062227753578:0.00000000040000000000
*** Initializing Memory Statistics ***
GPGPU-Sim uArch: interconnect node map (shaderID+MemID to icntID)
GPGPU-Sim uArch: Memory nodes ID start from index: 20
GPGPU-Sim uArch:    0   1   2   3   4   5   6
GPGPU-Sim uArch:    7   8   9  10  11  12  13
GPGPU-Sim uArch:   14  15  16  17  18  19  20
GPGPU-Sim uArch:   21  22  23  24  25  26  27
GPGPU-Sim uArch:   28  29  30  31  32  33  34
GPGPU-Sim uArch:   35  36  37  38  39  40  41
GPGPU-Sim uArch:   42  43  44  45  46  47  48
GPGPU-Sim uArch:   49
GPGPU-Sim uArch: interconnect node reverse map (icntID to shaderID+MemID)
GPGPU-Sim uArch: Memory nodes start from ID: 20
GPGPU-Sim uArch:    0   1   2   3   4   5   6
GPGPU-Sim uArch:    7   8   9  10  11  12  13
GPGPU-Sim uArch:   14  15  16  17  18  19  20
GPGPU-Sim uArch:   21  22  23  24  25  26  27
GPGPU-Sim uArch:   28  29  30  31  32  33  34
GPGPU-Sim uArch:   35  36  37  38  39  40  41
GPGPU-Sim uArch:   42  43  44  45  46  47  48
GPGPU-Sim uArch:   49
GPGPU-Sim uArch: performance model initialization complete.
Processing kernel /benchrun/accelsim-sass/sm6_gtx1080/babelstream/input-arraysize-102400-numtimes-1/results/traces/kernel-1.traceg
-kernel name = _Z11init_kernelIdEvPT_S1_S1_S0_S0_S0_
-kernel id = 1
-grid dim = (100,1,1)
-block dim = (1024,1,1)
-shmem = 0
-nregs = 14
-binary version = 61
-cuda stream id = 0
-shmem base_addr = 0x00007f613f000000
-local mem base_addr = 0x00007f613d000000
-nvbit version = 1.5.5
-accelsim tracer version = 3
Header info loaded for kernel command : /benchrun/accelsim-sass/sm6_gtx1080/babelstream/input-arraysize-102400-numtimes-1/results/traces/kernel-1.traceg
launching kernel name: _Z11init_kernelIdEvPT_S1_S1_S0_S0_S0_ uid: 1
GPGPU-Sim uArch: Shader 0 bind to kernel 1 '_Z11init_kernelIdEvPT_S1_S1_S0_S0_S0_'
GPGPU-Sim uArch: CTA/core = 2, limited by: threads
thread block = 0,0,0
GPGPU-Sim uArch: Shader 1 bind to kernel 1 '_Z11init_kernelIdEvPT_S1_S1_S0_S0_S0_'
thread block = 1,0,0
GPGPU-Sim uArch: Shader 2 bind to kernel 1 '_Z11init_kernelIdEvPT_S1_S1_S0_S0_S0_'
thread block = 2,0,0
GPGPU-Sim uArch: Shader 3 bind to kernel 1 '_Z11init_kernelIdEvPT_S1_S1_S0_S0_S0_'
thread block = 3,0,0
GPGPU-Sim uArch: Shader 4 bind to kernel 1 '_Z11init_kernelIdEvPT_S1_S1_S0_S0_S0_'
thread block = 4,0,0
GPGPU-Sim uArch: Shader 5 bind to kernel 1 '_Z11init_kernelIdEvPT_S1_S1_S0_S0_S0_'
thread block = 5,0,0
GPGPU-Sim uArch: Shader 6 bind to kernel 1 '_Z11init_kernelIdEvPT_S1_S1_S0_S0_S0_'
thread block = 6,0,0
GPGPU-Sim uArch: Shader 7 bind to kernel 1 '_Z11init_kernelIdEvPT_S1_S1_S0_S0_S0_'
thread block = 7,0,0
GPGPU-Sim uArch: Shader 8 bind to kernel 1 '_Z11init_kernelIdEvPT_S1_S1_S0_S0_S0_'
thread block = 8,0,0
GPGPU-Sim uArch: Shader 9 bind to kernel 1 '_Z11init_kernelIdEvPT_S1_S1_S0_S0_S0_'
thread block = 9,0,0
GPGPU-Sim uArch: Shader 10 bind to kernel 1 '_Z11init_kernelIdEvPT_S1_S1_S0_S0_S0_'
thread block = 10,0,0
GPGPU-Sim uArch: Shader 11 bind to kernel 1 '_Z11init_kernelIdEvPT_S1_S1_S0_S0_S0_'
thread block = 11,0,0
GPGPU-Sim uArch: Shader 12 bind to kernel 1 '_Z11init_kernelIdEvPT_S1_S1_S0_S0_S0_'
thread block = 12,0,0
GPGPU-Sim uArch: Shader 13 bind to kernel 1 '_Z11init_kernelIdEvPT_S1_S1_S0_S0_S0_'
thread block = 13,0,0
GPGPU-Sim uArch: Shader 14 bind to kernel 1 '_Z11init_kernelIdEvPT_S1_S1_S0_S0_S0_'
thread block = 14,0,0
GPGPU-Sim uArch: Shader 15 bind to kernel 1 '_Z11init_kernelIdEvPT_S1_S1_S0_S0_S0_'
thread block = 15,0,0
GPGPU-Sim uArch: Shader 16 bind to kernel 1 '_Z11init_kernelIdEvPT_S1_S1_S0_S0_S0_'
thread block = 16,0,0
GPGPU-Sim uArch: Shader 17 bind to kernel 1 '_Z11init_kernelIdEvPT_S1_S1_S0_S0_S0_'
thread block = 17,0,0
GPGPU-Sim uArch: Shader 18 bind to kernel 1 '_Z11init_kernelIdEvPT_S1_S1_S0_S0_S0_'
thread block = 18,0,0
GPGPU-Sim uArch: Shader 19 bind to kernel 1 '_Z11init_kernelIdEvPT_S1_S1_S0_S0_S0_'
thread block = 19,0,0
thread block = 20,0,0
thread block = 21,0,0
thread block = 22,0,0
thread block = 23,0,0
thread block = 24,0,0
thread block = 25,0,0
thread block = 26,0,0
thread block = 27,0,0
thread block = 28,0,0
thread block = 29,0,0
thread block = 30,0,0
thread block = 31,0,0
thread block = 32,0,0
thread block = 33,0,0
thread block = 34,0,0
thread block = 35,0,0
thread block = 36,0,0
thread block = 37,0,0
thread block = 38,0,0
thread block = 39,0,0
thread block = 40,0,0
thread block = 41,0,0
thread block = 42,0,0
thread block = 43,0,0
thread block = 44,0,0
thread block = 45,0,0
thread block = 46,0,0
thread block = 47,0,0
thread block = 48,0,0
thread block = 49,0,0
thread block = 50,0,0
thread block = 51,0,0
thread block = 52,0,0
thread block = 53,0,0
thread block = 54,0,0
thread block = 55,0,0
thread block = 56,0,0
thread block = 57,0,0
thread block = 58,0,0
thread block = 59,0,0
thread block = 60,0,0
thread block = 61,0,0
thread block = 62,0,0
thread block = 63,0,0
thread block = 64,0,0
thread block = 65,0,0
thread block = 66,0,0
thread block = 67,0,0
thread block = 68,0,0
thread block = 69,0,0
thread block = 70,0,0
thread block = 71,0,0
thread block = 72,0,0
thread block = 73,0,0
thread block = 74,0,0
thread block = 75,0,0
thread block = 76,0,0
thread block = 77,0,0
thread block = 78,0,0
thread block = 79,0,0
thread block = 80,0,0
thread block = 81,0,0
thread block = 82,0,0
thread block = 83,0,0
thread block = 84,0,0
thread block = 85,0,0
thread block = 86,0,0
thread block = 87,0,0
thread block = 88,0,0
thread block = 89,0,0
thread block = 90,0,0
thread block = 91,0,0
thread block = 92,0,0
thread block = 93,0,0
thread block = 94,0,0
thread block = 95,0,0
thread block = 96,0,0
thread block = 97,0,0
thread block = 98,0,0
thread block = 99,0,0
Destroy streams for kernel 1: size 0
kernel_name = _Z11init_kernelIdEvPT_S1_S1_S0_S0_S0_ 
kernel_launch_uid = 1 
gpu_sim_cycle = 32799
gpu_sim_insn = 2457600
gpu_ipc =      74.9291
gpu_tot_sim_cycle = 32799
gpu_tot_sim_insn = 2457600
gpu_tot_ipc =      74.9291
gpu_tot_issued_cta = 100
gpu_occupancy = 64.2028% 
gpu_tot_occupancy = 64.2028% 
max_total_param_size = 0
gpu_stall_dramfull = 153294
gpu_stall_icnt2sh    = 170
partiton_level_parallism =       0.5866
partiton_level_parallism_total  =       0.5866
partiton_level_parallism_util =       2.4913
partiton_level_parallism_util_total  =       2.4913
L2_BW  =      30.1655 GB/Sec
L2_BW_total  =      30.1655 GB/Sec
gpu_total_sim_rate=144564

========= Core cache stats =========
L1I_cache:
	L1I_total_cache_accesses = 38400
	L1I_total_cache_misses = 1920
	L1I_total_cache_miss_rate = 0.0500
	L1I_total_cache_pending_hits = 0
	L1I_total_cache_reservation_fails = 9660
L1D_cache:
	L1D_cache_core[0]: Access = 0, Miss = 0, Miss_rate = -nan, Pending_hits = 0, Reservation_fails = 0
	L1D_cache_core[1]: Access = 0, Miss = 0, Miss_rate = -nan, Pending_hits = 0, Reservation_fails = 0
	L1D_cache_core[2]: Access = 0, Miss = 0, Miss_rate = -nan, Pending_hits = 0, Reservation_fails = 0
	L1D_cache_core[3]: Access = 0, Miss = 0, Miss_rate = -nan, Pending_hits = 0, Reservation_fails = 0
	L1D_cache_core[4]: Access = 0, Miss = 0, Miss_rate = -nan, Pending_hits = 0, Reservation_fails = 0
	L1D_cache_core[5]: Access = 0, Miss = 0, Miss_rate = -nan, Pending_hits = 0, Reservation_fails = 0
	L1D_cache_core[6]: Access = 0, Miss = 0, Miss_rate = -nan, Pending_hits = 0, Reservation_fails = 0
	L1D_cache_core[7]: Access = 0, Miss = 0, Miss_rate = -nan, Pending_hits = 0, Reservation_fails = 0
	L1D_cache_core[8]: Access = 0, Miss = 0, Miss_rate = -nan, Pending_hits = 0, Reservation_fails = 0
	L1D_cache_core[9]: Access = 0, Miss = 0, Miss_rate = -nan, Pending_hits = 0, Reservation_fails = 0
	L1D_cache_core[10]: Access = 0, Miss = 0, Miss_rate = -nan, Pending_hits = 0, Reservation_fails = 0
	L1D_cache_core[11]: Access = 0, Miss = 0, Miss_rate = -nan, Pending_hits = 0, Reservation_fails = 0
	L1D_cache_core[12]: Access = 0, Miss = 0, Miss_rate = -nan, Pending_hits = 0, Reservation_fails = 0
	L1D_cache_core[13]: Access = 0, Miss = 0, Miss_rate = -nan, Pending_hits = 0, Reservation_fails = 0
	L1D_cache_core[14]: Access = 0, Miss = 0, Miss_rate = -nan, Pending_hits = 0, Reservation_fails = 0
	L1D_cache_core[15]: Access = 0, Miss = 0, Miss_rate = -nan, Pending_hits = 0, Reservation_fails = 0
	L1D_cache_core[16]: Access = 0, Miss = 0, Miss_rate = -nan, Pending_hits = 0, Reservation_fails = 0
	L1D_cache_core[17]: Access = 0, Miss = 0, Miss_rate = -nan, Pending_hits = 0, Reservation_fails = 0
	L1D_cache_core[18]: Access = 0, Miss = 0, Miss_rate = -nan, Pending_hits = 0, Reservation_fails = 0
	L1D_cache_core[19]: Access = 0, Miss = 0, Miss_rate = -nan, Pending_hits = 0, Reservation_fails = 0
	L1D_total_cache_accesses = 0
	L1D_total_cache_misses = 0
	L1D_total_cache_pending_hits = 0
	L1D_total_cache_reservation_fails = 0
	L1D_cache_data_port_util = 0.000
	L1D_cache_fill_port_util = 0.000
L1C_cache:
	L1C_total_cache_accesses = 0
	L1C_total_cache_misses = 0
	L1C_total_cache_pending_hits = 0
	L1C_total_cache_reservation_fails = 0
L1T_cache:
	L1T_total_cache_accesses = 0
	L1T_total_cache_misses = 0
	L1T_total_cache_pending_hits = 0
	L1T_total_cache_reservation_fails = 0

Total_core_cache_stats:
	Total_core_cache_stats_breakdown[GLOBAL_ACC_R][HIT] = 0
	Total_core_cache_stats_breakdown[GLOBAL_ACC_R][HIT_RESERVED] = 0
	Total_core_cache_stats_breakdown[GLOBAL_ACC_R][MISS] = 0
	Total_core_cache_stats_breakdown[GLOBAL_ACC_R][RESERVATION_FAIL] = 0
	Total_core_cache_stats_breakdown[GLOBAL_ACC_R][SECTOR_MISS] = 0
	Total_core_cache_stats_breakdown[GLOBAL_ACC_R][MSHR_HIT] = 0
	Total_core_cache_stats_breakdown[LOCAL_ACC_R][HIT] = 0
	Total_core_cache_stats_breakdown[LOCAL_ACC_R][HIT_RESERVED] = 0
	Total_core_cache_stats_breakdown[LOCAL_ACC_R][MISS] = 0
	Total_core_cache_stats_breakdown[LOCAL_ACC_R][RESERVATION_FAIL] = 0
	Total_core_cache_stats_breakdown[LOCAL_ACC_R][SECTOR_MISS] = 0
	Total_core_cache_stats_breakdown[LOCAL_ACC_R][MSHR_HIT] = 0
	Total_core_cache_stats_breakdown[CONST_ACC_R][HIT] = 0
	Total_core_cache_stats_breakdown[CONST_ACC_R][HIT_RESERVED] = 0
	Total_core_cache_stats_breakdown[CONST_ACC_R][MISS] = 0
	Total_core_cache_stats_breakdown[CONST_ACC_R][RESERVATION_FAIL] = 0
	Total_core_cache_stats_breakdown[CONST_ACC_R][SECTOR_MISS] = 0
	Total_core_cache_stats_breakdown[CONST_ACC_R][MSHR_HIT] = 0
	Total_core_cache_stats_breakdown[TEXTURE_ACC_R][HIT] = 0
	Total_core_cache_stats_breakdown[TEXTURE_ACC_R][HIT_RESERVED] = 0
	Total_core_cache_stats_breakdown[TEXTURE_ACC_R][MISS] = 0
	Total_core_cache_stats_breakdown[TEXTURE_ACC_R][RESERVATION_FAIL] = 0
	Total_core_cache_stats_breakdown[TEXTURE_ACC_R][SECTOR_MISS] = 0
	Total_core_cache_stats_breakdown[TEXTURE_ACC_R][MSHR_HIT] = 0
	Total_core_cache_stats_breakdown[GLOBAL_ACC_W][HIT] = 0
	Total_core_cache_stats_breakdown[GLOBAL_ACC_W][HIT_RESERVED] = 0
	Total_core_cache_stats_breakdown[GLOBAL_ACC_W][MISS] = 0
	Total_core_cache_stats_breakdown[GLOBAL_ACC_W][RESERVATION_FAIL] = 0
	Total_core_cache_stats_breakdown[GLOBAL_ACC_W][SECTOR_MISS] = 0
	Total_core_cache_stats_breakdown[GLOBAL_ACC_W][MSHR_HIT] = 0
	Total_core_cache_stats_breakdown[LOCAL_ACC_W][HIT] = 0
	Total_core_cache_stats_breakdown[LOCAL_ACC_W][HIT_RESERVED] = 0
	Total_core_cache_stats_breakdown[LOCAL_ACC_W][MISS] = 0
	Total_core_cache_stats_breakdown[LOCAL_ACC_W][RESERVATION_FAIL] = 0
	Total_core_cache_stats_breakdown[LOCAL_ACC_W][SECTOR_MISS] = 0
	Total_core_cache_stats_breakdown[LOCAL_ACC_W][MSHR_HIT] = 0
	Total_core_cache_stats_breakdown[L1_WRBK_ACC][HIT] = 0
	Total_core_cache_stats_breakdown[L1_WRBK_ACC][HIT_RESERVED] = 0
	Total_core_cache_stats_breakdown[L1_WRBK_ACC][MISS] = 0
	Total_core_cache_stats_breakdown[L1_WRBK_ACC][RESERVATION_FAIL] = 0
	Total_core_cache_stats_breakdown[L1_WRBK_ACC][SECTOR_MISS] = 0
	Total_core_cache_stats_breakdown[L1_WRBK_ACC][MSHR_HIT] = 0
	Total_core_cache_stats_breakdown[L2_WRBK_ACC][HIT] = 0
	Total_core_cache_stats_breakdown[L2_WRBK_ACC][HIT_RESERVED] = 0
	Total_core_cache_stats_breakdown[L2_WRBK_ACC][MISS] = 0
	Total_core_cache_stats_breakdown[L2_WRBK_ACC][RESERVATION_FAIL] = 0
	Total_core_cache_stats_breakdown[L2_WRBK_ACC][SECTOR_MISS] = 0
	Total_core_cache_stats_breakdown[L2_WRBK_ACC][MSHR_HIT] = 0
	Total_core_cache_stats_breakdown[INST_ACC_R][HIT] = 36480
	Total_core_cache_stats_breakdown[INST_ACC_R][HIT_RESERVED] = 0
	Total_core_cache_stats_breakdown[INST_ACC_R][MISS] = 1920
	Total_core_cache_stats_breakdown[INST_ACC_R][RESERVATION_FAIL] = 9660
	Total_core_cache_stats_breakdown[INST_ACC_R][SECTOR_MISS] = 0
	Total_core_cache_stats_breakdown[INST_ACC_R][MSHR_HIT] = 1880
	Total_core_cache_stats_breakdown[L1_WR_ALLOC_R][HIT] = 0
	Total_core_cache_stats_breakdown[L1_WR_ALLOC_R][HIT_RESERVED] = 0
	Total_core_cache_stats_breakdown[L1_WR_ALLOC_R][MISS] = 0
	Total_core_cache_stats_breakdown[L1_WR_ALLOC_R][RESERVATION_FAIL] = 0
	Total_core_cache_stats_breakdown[L1_WR_ALLOC_R][SECTOR_MISS] = 0
	Total_core_cache_stats_breakdown[L1_WR_ALLOC_R][MSHR_HIT] = 0
	Total_core_cache_stats_breakdown[L2_WR_ALLOC_R][HIT] = 0
	Total_core_cache_stats_breakdown[L2_WR_ALLOC_R][HIT_RESERVED] = 0
	Total_core_cache_stats_breakdown[L2_WR_ALLOC_R][MISS] = 0
	Total_core_cache_stats_breakdown[L2_WR_ALLOC_R][RESERVATION_FAIL] = 0
	Total_core_cache_stats_breakdown[L2_WR_ALLOC_R][SECTOR_MISS] = 0
	Total_core_cache_stats_breakdown[L2_WR_ALLOC_R][MSHR_HIT] = 0
	Total_core_cache_stats_breakdown[INST_ACC_R][TOTAL_ACCESS] = 38400

Total_core_cache_fail_stats:
	Total_core_cache_fail_stats_breakdown[INST_ACC_R][MSHR_MERGE_ENRTY_FAIL] = 9660
ctas_completed 100, Shader 0 warp_id issue ditsribution:
warp_id:
0, 1, 2, 3, 4, 5, 6, 7, 8, 9, 10, 11, 12, 13, 14, 15, 16, 17, 18, 19, 20, 21, 22, 23, 24, 25, 26, 27, 28, 29, 30, 31, 32, 33, 34, 35, 36, 37, 38, 39, 40, 41, 42, 43, 44, 45, 46, 47, 48, 49, 50, 51, 52, 53, 54, 55, 56, 57, 58, 59, 60, 61, 62, 63, 
distro:
80, 81, 80, 80, 80, 80, 80, 80, 80, 80, 80, 80, 79, 78, 78, 78, 78, 78, 78, 78, 78, 78, 78, 78, 78, 78, 78, 78, 78, 78, 78, 78, 78, 78, 78, 78, 78, 78, 78, 78, 78, 78, 78, 78, 78, 78, 78, 78, 78, 78, 78, 78, 78, 78, 78, 78, 78, 78, 78, 78, 78, 78, 78, 78, 
gpgpu_n_tot_thrd_icount = 2457600
gpgpu_n_tot_w_icount = 76800
gpgpu_n_stall_shd_mem = 560101
gpgpu_n_mem_read_local = 0
gpgpu_n_mem_write_local = 0
gpgpu_n_mem_read_global = 0
gpgpu_n_mem_write_global = 19200
gpgpu_n_mem_texture = 0
gpgpu_n_mem_const = 0
gpgpu_n_load_insn  = 0
gpgpu_n_store_insn = 307200
gpgpu_n_shmem_insn = 0
gpgpu_n_sstarr_insn = 0
gpgpu_n_tex_insn = 0
gpgpu_n_const_mem_insn = 0
gpgpu_n_param_mem_insn = 0
gpgpu_n_shmem_bkconflict = 0
gpgpu_n_cache_bkconflict = 0
gpgpu_n_intrawarp_mshr_merge = 0
gpgpu_n_cmem_portconflict = 0
gpgpu_stall_shd_mem[c_mem][resource_stall] = 0
gpgpu_stall_shd_mem[s_mem][bk_conf] = 0
gpgpu_stall_shd_mem[gl_mem][resource_stall] = 0
gpgpu_stall_shd_mem[gl_mem][coal_stall] = 9600
gpgpu_stall_shd_mem[gl_mem][data_port_stall] = 0
gpu_reg_bank_conflict_stalls = 0
Warp Occupancy Distribution:
Stall:1033205	W0_Idle:144195	W0_Scoreboard:934	W1:0	W2:0	W3:0	W4:0	W5:0	W6:0	W7:0	W8:0	W9:0	W10:0	W11:0	W12:0	W13:0	W14:0	W15:0	W16:0	W17:0	W18:0	W19:0	W20:0	W21:0	W22:0	W23:0	W24:0	W25:0	W26:0	W27:0	W28:0	W29:0	W30:0	W31:0	W32:76800
single_issue_nums: WS0:31672	WS1:31688	
dual_issue_nums: WS0:3364	WS1:3356	
traffic_breakdown_coretomem[GLOBAL_ACC_W] = 2611200 {136:19200,}
traffic_breakdown_coretomem[INST_ACC_R] = 320 {8:40,}
traffic_breakdown_memtocore[GLOBAL_ACC_W] = 153600 {8:19200,}
traffic_breakdown_memtocore[INST_ACC_R] = 5440 {136:40,}
maxmflatency = 3751 
max_icnt2mem_latency = 1132 
maxmrqlatency = 2773 
max_icnt2sh_latency = 14 
averagemflatency = 940 
avg_icnt2mem_latency = 116 
avg_mrq_latency = 301 
avg_icnt2sh_latency = 8 
mrq_lat_table:4239 	42 	419 	721 	1936 	2984 	5167 	7002 	8246 	5870 	1754 	22 	0 	0 	0 	0 	0 	0 	0 	0 	0 	0 	0 	0 	0 	0 	0 	0 	0 	0 	0 	0 	
dq_lat_table:0 	0 	0 	0 	0 	0 	0 	0 	0 	0 	0 	0 	0 	0 	0 	0 	0 	0 	0 	0 	0 	0 	0 	0 	0 	0 	0 	0 	0 	0 	0 	0 	
mf_lat_table:0 	0 	0 	0 	0 	0 	0 	0 	4809 	6839 	6903 	649 	0 	0 	0 	0 	0 	0 	0 	0 	0 	0 	0 	0 	0 	0 	0 	0 	0 	0 	0 	0 	
icnt2mem_lat_table:0 	0 	0 	35 	9177 	4186 	1881 	871 	1799 	1216 	75 	0 	0 	0 	0 	0 	0 	0 	0 	0 	0 	0 	0 	0 	
icnt2sh_lat_table:0 	0 	0 	19200 	0 	0 	0 	0 	0 	0 	0 	0 	0 	0 	0 	0 	0 	0 	0 	0 	0 	0 	0 	0 	
mf_lat_pw_table:0 	0 	0 	0 	0 	0 	0 	0 	1 	41 	21 	0 	0 	0 	0 	0 	0 	0 	0 	0 	0 	0 	0 	0 	0 	0 	0 	0 	0 	0 	0 	0 	
maximum concurrent accesses to same row:
dram[0]:        18        18        22        22        18        16        20        20        16        16        32        32        16        12        18        18 
dram[1]:        20        20        18        18        18        18        18        18        18        18        30        30        10        10        16        16 
dram[2]:        20        20        18        18        16        16        18        18        16        16        32        32        14        14        18        18 
dram[3]:        20        22        20        20        18        18        20        20        18        18        28        28        12        12        16        16 
dram[4]:        20        20        16        16        16        16        16        16        16        16        32        32        16        16        22        22 
dram[5]:        22        22        20        20        20        20        10        10        20        20        32        32        12        12        18        14 
dram[6]:        22        22        16        16        16        16        16        16        16        16        32        32        10        10        14        16 
dram[7]:        18        18        16        16        20        20        18        18        12        12        28        30        14        14        12        12 
maximum service time to same row:
dram[0]:      1567      1571      3207      3220      3260      3250      3455      3437      2875      2860      5368      5358      3148      3144      4750      4741 
dram[1]:      2025      2025      1670      1658      3343      3332      2412      2408      2253      2241      8618      8624      8671      8666      6499      6488 
dram[2]:      1683      1681      2338      2339      4144      4134      3168      3163      2788      2781      5761      5766      4610      4609      5014      5014 
dram[3]:      3561      3563      1801      1800      1378      1379      2848      2704      2039      2038      8406      8395      6269      6274      6127      6131 
dram[4]:      3034      3030      2340      2338      2441      2440      3362      3356      3244      3449      5548      5552      4904      4899      5010      4992 
dram[5]:      2512      2491      2847      2860      2385      2367      2294      2280      1934      1923      8990      8990      6261      6252      7203      7213 
dram[6]:      2967      2963      2156      2156      2145      2145      2604      2611      2674      2669      5549      5553      4953      4953      5086      5086 
dram[7]:      2622      2611      1930      1931      4646      4649      2119      2108      2263      2254      9201      9374      6927      6915      7357      7345 
average row accesses per activate:
dram[0]:  4.104651  4.104651  4.848485  4.848485  4.645161  4.645161  6.000000  6.000000  4.500000  4.721312  4.363636  4.363636  3.692308  3.789474  3.692308  3.692308 
dram[1]:  4.693333  4.821918  4.705883  4.705883  3.272727  3.272727  3.945205  3.945205  4.363636  4.500000  4.114286  4.114286  3.600000  3.645570  4.000000  4.000000 
dram[2]:  4.141177  4.292683  5.517241  5.517241  4.500000  4.500000  6.000000  6.127660  4.363636  4.500000  4.114286  4.235294  3.840000  4.000000  4.056338  4.173913 
dram[3]:  4.888889  5.028572  4.102564  4.102564  3.235955  3.235955  3.840000  3.740260  4.235294  4.235294  3.789474  3.891892  3.469880  3.600000  3.600000  3.692308 
dram[4]:  4.571429  4.571429  5.161290  5.161290  4.173913  4.298508  5.877551  5.877551  4.298508  4.298508  4.114286  4.056338  3.428571  3.469880  4.173913  3.891892 
dram[5]:  4.756757  4.821918  4.210526  4.155844  3.272727  3.348837  3.200000  3.272727  4.500000  4.500000  4.500000  4.645161  3.600000  3.692308  3.469880  3.348837 
dram[6]:  4.957747  4.957747  4.444445  4.444445  4.000000  4.056338  5.877551  5.877551  3.740260  3.740260  4.721312  4.721312  3.063830  3.200000  3.164835  3.235955 
dram[7]:  5.028572  5.028572  4.324324  4.266667  3.235955  3.388235  3.512195  3.600000  3.388235  3.388235  5.333333  5.333333  3.840000  3.840000  3.428571  3.469880 
average row locality = 38402/9283 = 4.136809
number of total memory accesses made:
dram[0]:         0         0         0         0         0         0         0         0         0         0         0         0         0         0         0         0 
dram[1]:         0         0         0         0         0         0         0         0         0         0         0         0         0         0         0         0 
dram[2]:         0         0         0         0         0         0         0         0         0         0         0         0         0         0         0         0 
dram[3]:         0         0         0         0         0         0         0         0         0         0         0         0         0         0         0         0 
dram[4]:         0         0         0         0         0         0         0         0         0         0         0         0         0         0         0         0 
dram[5]:         0         0         0         0         0         0         0         0         0         0         0         0         0         0         0         0 
dram[6]:         0         0         0         0         0         0         0         0         0         0         0         0         0         0         0         0 
dram[7]:         0         0         0         0         0         0         0         0         0         0         0         0         0         0         0         0 
total accesses: 0
min_bank_accesses = 0!
min_chip_accesses = 0!
number of total read accesses:
dram[0]:       708       708       640       640       576       576       576       576       576       576       576       576       576       576       576       576 
dram[1]:       704       704       640       640       576       576       576       576       576       576       576       576       576       576       576       576 
dram[2]:       704       704       640       640       576       576       576       576       576       576       576       576       576       576       576       576 
dram[3]:       704       704       640       640       576       576       576       576       576       576       576       576       576       576       576       576 
dram[4]:       704       704       640       640       576       576       576       576       576       576       576       576       576       576       576       576 
dram[5]:       704       704       640       640       576       576       576       576       576       576       576       576       576       576       576       576 
dram[6]:       704       704       640       640       576       576       576       576       576       576       576       576       576       576       576       576 
dram[7]:       704       704       640       640       576       576       576       576       576       576       576       576       576       576       576       576 
total dram reads = 76808
bank skew: 708/576 = 1.23
chip skew: 9608/9600 = 1.00
number of total write accesses:
dram[0]:       704       704       640       640       576       576       576       576       576       576       576       576       576       576       576       576 
dram[1]:       704       704       640       640       576       576       576       576       576       576       576       576       576       576       576       576 
dram[2]:       704       704       640       640       576       576       576       576       576       576       576       576       576       576       576       576 
dram[3]:       704       704       640       640       576       576       576       576       576       576       576       576       576       576       576       576 
dram[4]:       704       704       640       640       576       576       576       576       576       576       576       576       576       576       576       576 
dram[5]:       704       704       640       640       576       576       576       576       576       576       576       576       576       576       576       576 
dram[6]:       704       704       640       640       576       576       576       576       576       576       576       576       576       576       576       576 
dram[7]:       704       704       640       640       576       576       576       576       576       576       576       576       576       576       576       576 
total dram writes = 76800
bank skew: 704/576 = 1.22
chip skew: 9600/9600 = 1.00
average mf latency per bank:
dram[0]:        134       142       146       157       130       143       134       144       126       133       124       134       118       129       128       137
dram[1]:        102       107       102       109        92        99       104       112       111       118        88        97        73        80        89        95
dram[2]:        113       119       135       141       116       122       131       135       122       127       116       121       111       117       117       123
dram[3]:        111       114        99       102        88        91       101       103       111       114        92        94        78        80        89        90
dram[4]:        112       116       121       125       106       110       121       124       111       114       115       115       105       110       118       117
dram[5]:        118       121        96       100        93        96        94        97       117       122       101       103        89        92       100       102
dram[6]:        125       130       113       118       101       108       130       136       109       114       122       129       103       110        96       101
dram[7]:        154       164       138       144       120       130       137       146       139       151       183       194       147       158       135       144
maximum mf latency per bank:
dram[0]:       2170      2687      3214      3751      2585      2616      2613      2654      2261      2481      2707      2718      1596      1987      1917      2176
dram[1]:       2152      2293      2513      2530      2200      2265      2194      2269      3519      3228      1675      2048      1275      1459      2191      2220
dram[2]:       2090      2102      2641      2649      2180      2212      2736      2747      2025      2036      2156      2204      2211      1980      2082      2100
dram[3]:       2168      2180      2225      2251      1948      1959      2065      2185      2846      2857      1844      1855      1330      1440      2068      2092
dram[4]:       2809      2820      2631      2641      2133      2118      2163      2198      1902      1758      2914      2284      2542      2565      2365      2005
dram[5]:       2418      2429      1955      2166      2733      2897      1730      1834      2554      2570      1924      1965      1622      1634      2261      2278
dram[6]:       2479      2490      2953      3054      1934      1969      2389      2652      1987      2210      2674      2791      2201      2278      2014      2073
dram[7]:       2661      2913      3008      3019      2322      2540      2284      2536      2424      2589      2790      3254      2593      2788      2166      2297
Memory Partition 0: 
Cache L2_bank_000:
MSHR contents

Cache L2_bank_001:
MSHR contents

In Dram Latency Queue (total = 0): 
DRAM[0]: 16 bks, busW=4 BL=8 CL=12, tRRD=6 tCCD=2, tRCD=12 tRAS=28 tRP=12 tRC=40
n_cmd=51024 n_nop=30056 n_act=1091 n_pre=1075 n_ref_event=0 n_req=4802 n_rd=8 n_rd_L2_A=9600 n_write=9600 n_wr_bk=0 bw_util=0.7529
n_activity=44050 dram_eff=0.8721
bk0: 708a 20268i bk1: 708a 19573i bk2: 640a 23042i bk3: 640a 22799i bk4: 576a 23392i bk5: 576a 23513i bk6: 576a 23722i bk7: 576a 23500i bk8: 576a 23454i bk9: 576a 23365i bk10: 576a 24417i bk11: 576a 24329i bk12: 576a 25221i bk13: 576a 24424i bk14: 576a 27508i bk15: 576a 27101i 

------------------------------------------------------------------------

Row_Buffer_Locality = 0.772803
Row_Buffer_Locality_read = 0.999167
Row_Buffer_Locality_write = 0.546250
Bank_Level_Parallism = 10.078712
Bank_Level_Parallism_Col = 9.753606
Bank_Level_Parallism_Ready = 5.646451
write_to_read_ratio_blp_rw_average = 0.463428
GrpLevelPara = 1.000000 

BW Util details:
bwutil = 0.752901 
total_CMD = 51024 
util_bw = 38416 
Wasted_Col = 5235 
Wasted_Row = 187 
Idle = 7186 

BW Util Bottlenecks: 
RCDc_limit = 24 
RCDWRc_limit = 1109 
WTRc_limit = 21831 
RTWc_limit = 20483 
CCDLc_limit = 0 
rwq = 0 
CCDLc_limit_alone = 0 
WTRc_limit_alone = 21831 
RTWc_limit_alone = 20483 

Commands details: 
total_CMD = 51024 
n_nop = 30056 
Read = 8 
Write = 9600 
L2_Alloc = 9600 
L2_WB = 0 
n_act = 1091 
n_pre = 1075 
n_ref = 0 
n_req = 4802 
total_req = 19208 

Dual Bus Interface Util: 
issued_total_row = 2166 
issued_total_col = 19208 
Row_Bus_Util =  0.042451 
CoL_Bus_Util = 0.376450 
Either_Row_CoL_Bus_Util = 0.410944 
Issued_on_Two_Bus_Simul_Util = 0.007957 
issued_two_Eff = 0.019363 
queue_avg = 46.316948 


dram_util_bins: 0 0 0 0 0 0 0 0 0 0
dram_eff_bins: 0 0 0 0 0 0 0 0 0 0
mrqq: max=64 avg=46.3169
Memory Partition 1: 
Cache L2_bank_002:
MSHR contents

Cache L2_bank_003:
MSHR contents

In Dram Latency Queue (total = 0): 
DRAM[1]: 16 bks, busW=4 BL=8 CL=12, tRRD=6 tCCD=2, tRCD=12 tRAS=28 tRP=12 tRC=40
n_cmd=51024 n_nop=29924 n_act=1179 n_pre=1163 n_ref_event=0 n_req=4800 n_rd=0 n_rd_L2_A=9600 n_write=9600 n_wr_bk=0 bw_util=0.7526
n_activity=44110 dram_eff=0.8706
bk0: 704a 22043i bk1: 704a 21480i bk2: 640a 22849i bk3: 640a 22488i bk4: 576a 24585i bk5: 576a 24208i bk6: 576a 25040i bk7: 576a 25001i bk8: 576a 24932i bk9: 576a 24569i bk10: 576a 25655i bk11: 576a 25556i bk12: 576a 27216i bk13: 576a 27226i bk14: 576a 26157i bk15: 576a 25883i 

------------------------------------------------------------------------

Row_Buffer_Locality = 0.754375
Row_Buffer_Locality_read = 0.999583
Row_Buffer_Locality_write = 0.509167
Bank_Level_Parallism = 9.698653
Bank_Level_Parallism_Col = 9.325903
Bank_Level_Parallism_Ready = 5.404120
write_to_read_ratio_blp_rw_average = 0.459905
GrpLevelPara = 1.000000 

BW Util details:
bwutil = 0.752587 
total_CMD = 51024 
util_bw = 38400 
Wasted_Col = 5427 
Wasted_Row = 143 
Idle = 7054 

BW Util Bottlenecks: 
RCDc_limit = 1 
RCDWRc_limit = 1188 
WTRc_limit = 22329 
RTWc_limit = 19887 
CCDLc_limit = 0 
rwq = 0 
CCDLc_limit_alone = 0 
WTRc_limit_alone = 22329 
RTWc_limit_alone = 19887 

Commands details: 
total_CMD = 51024 
n_nop = 29924 
Read = 0 
Write = 9600 
L2_Alloc = 9600 
L2_WB = 0 
n_act = 1179 
n_pre = 1163 
n_ref = 0 
n_req = 4800 
total_req = 19200 

Dual Bus Interface Util: 
issued_total_row = 2342 
issued_total_col = 19200 
Row_Bus_Util =  0.045900 
CoL_Bus_Util = 0.376294 
Either_Row_CoL_Bus_Util = 0.413531 
Issued_on_Two_Bus_Simul_Util = 0.008663 
issued_two_Eff = 0.020948 
queue_avg = 40.124844 


dram_util_bins: 0 0 0 0 0 0 0 0 0 0
dram_eff_bins: 0 0 0 0 0 0 0 0 0 0
mrqq: max=64 avg=40.1248
Memory Partition 2: 
Cache L2_bank_004:
MSHR contents

Cache L2_bank_005:
MSHR contents

In Dram Latency Queue (total = 0): 
DRAM[2]: 16 bks, busW=4 BL=8 CL=12, tRRD=6 tCCD=2, tRCD=12 tRAS=28 tRP=12 tRC=40
n_cmd=51024 n_nop=30149 n_act=1061 n_pre=1045 n_ref_event=0 n_req=4800 n_rd=0 n_rd_L2_A=9600 n_write=9600 n_wr_bk=0 bw_util=0.7526
n_activity=43867 dram_eff=0.8754
bk0: 704a 19182i bk1: 704a 18775i bk2: 640a 22162i bk3: 640a 21920i bk4: 576a 22633i bk5: 576a 22397i bk6: 576a 23690i bk7: 576a 23519i bk8: 576a 23537i bk9: 576a 23282i bk10: 576a 24677i bk11: 576a 24542i bk12: 576a 24030i bk13: 576a 23854i bk14: 576a 27027i bk15: 576a 26819i 

------------------------------------------------------------------------

Row_Buffer_Locality = 0.778958
Row_Buffer_Locality_read = 1.000000
Row_Buffer_Locality_write = 0.557917
Bank_Level_Parallism = 10.276804
Bank_Level_Parallism_Col = 9.958353
Bank_Level_Parallism_Ready = 5.734287
write_to_read_ratio_blp_rw_average = 0.469188
GrpLevelPara = 1.000000 

BW Util details:
bwutil = 0.752587 
total_CMD = 51024 
util_bw = 38400 
Wasted_Col = 5135 
Wasted_Row = 187 
Idle = 7302 

BW Util Bottlenecks: 
RCDc_limit = 0 
RCDWRc_limit = 1172 
WTRc_limit = 21738 
RTWc_limit = 20979 
CCDLc_limit = 0 
rwq = 0 
CCDLc_limit_alone = 0 
WTRc_limit_alone = 21738 
RTWc_limit_alone = 20979 

Commands details: 
total_CMD = 51024 
n_nop = 30149 
Read = 0 
Write = 9600 
L2_Alloc = 9600 
L2_WB = 0 
n_act = 1061 
n_pre = 1045 
n_ref = 0 
n_req = 4800 
total_req = 19200 

Dual Bus Interface Util: 
issued_total_row = 2106 
issued_total_col = 19200 
Row_Bus_Util =  0.041275 
CoL_Bus_Util = 0.376294 
Either_Row_CoL_Bus_Util = 0.409121 
Issued_on_Two_Bus_Simul_Util = 0.008447 
issued_two_Eff = 0.020647 
queue_avg = 46.900066 


dram_util_bins: 0 0 0 0 0 0 0 0 0 0
dram_eff_bins: 0 0 0 0 0 0 0 0 0 0
mrqq: max=64 avg=46.9001
Memory Partition 3: 
Cache L2_bank_006:
MSHR contents

Cache L2_bank_007:
MSHR contents

In Dram Latency Queue (total = 0): 
DRAM[3]: 16 bks, busW=4 BL=8 CL=12, tRRD=6 tCCD=2, tRCD=12 tRAS=28 tRP=12 tRC=40
n_cmd=51024 n_nop=29831 n_act=1235 n_pre=1219 n_ref_event=0 n_req=4800 n_rd=0 n_rd_L2_A=9600 n_write=9600 n_wr_bk=0 bw_util=0.7526
n_activity=44308 dram_eff=0.8667
bk0: 704a 21198i bk1: 704a 21042i bk2: 640a 22924i bk3: 640a 22317i bk4: 576a 25186i bk5: 576a 24378i bk6: 576a 24732i bk7: 576a 24635i bk8: 576a 24650i bk9: 576a 24170i bk10: 576a 25345i bk11: 576a 25041i bk12: 576a 26039i bk13: 576a 25453i bk14: 576a 26751i bk15: 576a 26388i 

------------------------------------------------------------------------

Row_Buffer_Locality = 0.742708
Row_Buffer_Locality_read = 1.000000
Row_Buffer_Locality_write = 0.485417
Bank_Level_Parallism = 9.769576
Bank_Level_Parallism_Col = 9.404213
Bank_Level_Parallism_Ready = 5.478512
write_to_read_ratio_blp_rw_average = 0.458274
GrpLevelPara = 1.000000 

BW Util details:
bwutil = 0.752587 
total_CMD = 51024 
util_bw = 38400 
Wasted_Col = 5509 
Wasted_Row = 219 
Idle = 6896 

BW Util Bottlenecks: 
RCDc_limit = 0 
RCDWRc_limit = 1357 
WTRc_limit = 22385 
RTWc_limit = 19760 
CCDLc_limit = 0 
rwq = 0 
CCDLc_limit_alone = 0 
WTRc_limit_alone = 22385 
RTWc_limit_alone = 19760 

Commands details: 
total_CMD = 51024 
n_nop = 29831 
Read = 0 
Write = 9600 
L2_Alloc = 9600 
L2_WB = 0 
n_act = 1235 
n_pre = 1219 
n_ref = 0 
n_req = 4800 
total_req = 19200 

Dual Bus Interface Util: 
issued_total_row = 2454 
issued_total_col = 19200 
Row_Bus_Util =  0.048095 
CoL_Bus_Util = 0.376294 
Either_Row_CoL_Bus_Util = 0.415354 
Issued_on_Two_Bus_Simul_Util = 0.009035 
issued_two_Eff = 0.021752 
queue_avg = 39.802074 


dram_util_bins: 0 0 0 0 0 0 0 0 0 0
dram_eff_bins: 0 0 0 0 0 0 0 0 0 0
mrqq: max=64 avg=39.8021
Memory Partition 4: 
Cache L2_bank_008:
MSHR contents

Cache L2_bank_009:
MSHR contents

In Dram Latency Queue (total = 0): 
DRAM[4]: 16 bks, busW=4 BL=8 CL=12, tRRD=6 tCCD=2, tRCD=12 tRAS=28 tRP=12 tRC=40
n_cmd=51024 n_nop=30075 n_act=1097 n_pre=1081 n_ref_event=0 n_req=4800 n_rd=0 n_rd_L2_A=9600 n_write=9600 n_wr_bk=0 bw_util=0.7526
n_activity=44122 dram_eff=0.8703
bk0: 704a 19737i bk1: 704a 19694i bk2: 640a 22955i bk3: 640a 22567i bk4: 576a 23660i bk5: 576a 23272i bk6: 576a 24345i bk7: 576a 24148i bk8: 576a 24616i bk9: 576a 24346i bk10: 576a 25609i bk11: 576a 25458i bk12: 576a 26676i bk13: 576a 26144i bk14: 576a 26697i bk15: 576a 26694i 

------------------------------------------------------------------------

Row_Buffer_Locality = 0.771458
Row_Buffer_Locality_read = 0.999583
Row_Buffer_Locality_write = 0.543333
Bank_Level_Parallism = 9.887706
Bank_Level_Parallism_Col = 9.548794
Bank_Level_Parallism_Ready = 5.515748
write_to_read_ratio_blp_rw_average = 0.468222
GrpLevelPara = 1.000000 

BW Util details:
bwutil = 0.752587 
total_CMD = 51024 
util_bw = 38400 
Wasted_Col = 5383 
Wasted_Row = 181 
Idle = 7060 

BW Util Bottlenecks: 
RCDc_limit = 0 
RCDWRc_limit = 1298 
WTRc_limit = 22000 
RTWc_limit = 21144 
CCDLc_limit = 0 
rwq = 0 
CCDLc_limit_alone = 0 
WTRc_limit_alone = 22000 
RTWc_limit_alone = 21144 

Commands details: 
total_CMD = 51024 
n_nop = 30075 
Read = 0 
Write = 9600 
L2_Alloc = 9600 
L2_WB = 0 
n_act = 1097 
n_pre = 1081 
n_ref = 0 
n_req = 4800 
total_req = 19200 

Dual Bus Interface Util: 
issued_total_row = 2178 
issued_total_col = 19200 
Row_Bus_Util =  0.042686 
CoL_Bus_Util = 0.376294 
Either_Row_CoL_Bus_Util = 0.410571 
Issued_on_Two_Bus_Simul_Util = 0.008408 
issued_two_Eff = 0.020478 
queue_avg = 46.139091 


dram_util_bins: 0 0 0 0 0 0 0 0 0 0
dram_eff_bins: 0 0 0 0 0 0 0 0 0 0
mrqq: max=64 avg=46.1391
Memory Partition 5: 
Cache L2_bank_010:
MSHR contents
MSHR: tag=0xf5c5d00, atomic=0 1 entries : 0x55b8913cb310 :  mf: uid= 86363, sid00:w61, part=5, addr=0x7f610f5c5d00, load , size=128, unknown  status = IN_PARTITION_DRAM (32797), 

Cache L2_bank_011:
MSHR contents
MSHR: tag=0xf5c5d80, atomic=0 1 entries : 0x55b89114e440 :  mf: uid= 86359, sid00:w61, part=5, addr=0x7f610f5c5d80, load , size=128, unknown  status = IN_PARTITION_DRAM (32798), 

In Dram Latency Queue (total = 0): 
DRAM[5]: 16 bks, busW=4 BL=8 CL=12, tRRD=6 tCCD=2, tRCD=12 tRAS=28 tRP=12 tRC=40
n_cmd=51024 n_nop=29835 n_act=1233 n_pre=1217 n_ref_event=0 n_req=4800 n_rd=0 n_rd_L2_A=9597 n_write=9600 n_wr_bk=0 bw_util=0.7525
n_activity=44312 dram_eff=0.8664
bk0: 704a 21549i bk1: 701a 21231i bk2: 640a 23106i bk3: 640a 22642i bk4: 576a 25881i bk5: 576a 25333i bk6: 576a 26200i bk7: 576a 26033i bk8: 576a 24606i bk9: 576a 24321i bk10: 576a 23636i bk11: 576a 24040i bk12: 576a 24619i bk13: 576a 24247i bk14: 576a 26009i bk15: 576a 25843i 

------------------------------------------------------------------------

Row_Buffer_Locality = 0.743125
Row_Buffer_Locality_read = 0.999583
Row_Buffer_Locality_write = 0.486667
Bank_Level_Parallism = 9.788618
Bank_Level_Parallism_Col = 9.430369
Bank_Level_Parallism_Ready = 5.494684
write_to_read_ratio_blp_rw_average = 0.461723
GrpLevelPara = 1.000000 

BW Util details:
bwutil = 0.752469 
total_CMD = 51024 
util_bw = 38393 
Wasted_Col = 5513 
Wasted_Row = 237 
Idle = 6881 

BW Util Bottlenecks: 
RCDc_limit = 1 
RCDWRc_limit = 1381 
WTRc_limit = 21904 
RTWc_limit = 19902 
CCDLc_limit = 0 
rwq = 0 
CCDLc_limit_alone = 0 
WTRc_limit_alone = 21904 
RTWc_limit_alone = 19902 

Commands details: 
total_CMD = 51024 
n_nop = 29835 
Read = 0 
Write = 9600 
L2_Alloc = 9597 
L2_WB = 0 
n_act = 1233 
n_pre = 1217 
n_ref = 0 
n_req = 4800 
total_req = 19197 

Dual Bus Interface Util: 
issued_total_row = 2450 
issued_total_col = 19197 
Row_Bus_Util =  0.048017 
CoL_Bus_Util = 0.376235 
Either_Row_CoL_Bus_Util = 0.415275 
Issued_on_Two_Bus_Simul_Util = 0.008976 
issued_two_Eff = 0.021615 
queue_avg = 40.772224 


dram_util_bins: 0 0 0 0 0 0 0 0 0 0
dram_eff_bins: 0 0 0 0 0 0 0 0 0 0
mrqq: max=64 avg=40.7722
Memory Partition 6: 
Cache L2_bank_012:
MSHR contents

Cache L2_bank_013:
MSHR contents

In Dram Latency Queue (total = 0): 
DRAM[6]: 16 bks, busW=4 BL=8 CL=12, tRRD=6 tCCD=2, tRCD=12 tRAS=28 tRP=12 tRC=40
n_cmd=51024 n_nop=29998 n_act=1167 n_pre=1151 n_ref_event=0 n_req=4800 n_rd=0 n_rd_L2_A=9600 n_write=9600 n_wr_bk=0 bw_util=0.7526
n_activity=43690 dram_eff=0.8789
bk0: 704a 19430i bk1: 704a 19165i bk2: 640a 21408i bk3: 640a 21164i bk4: 576a 23816i bk5: 576a 23694i bk6: 576a 22315i bk7: 576a 22254i bk8: 576a 22737i bk9: 576a 22501i bk10: 576a 24193i bk11: 576a 24246i bk12: 576a 23555i bk13: 576a 23630i bk14: 576a 26426i bk15: 576a 26196i 

------------------------------------------------------------------------

Row_Buffer_Locality = 0.756875
Row_Buffer_Locality_read = 1.000000
Row_Buffer_Locality_write = 0.513750
Bank_Level_Parallism = 10.436884
Bank_Level_Parallism_Col = 10.065605
Bank_Level_Parallism_Ready = 5.783922
write_to_read_ratio_blp_rw_average = 0.463511
GrpLevelPara = 1.000000 

BW Util details:
bwutil = 0.752587 
total_CMD = 51024 
util_bw = 38400 
Wasted_Col = 5019 
Wasted_Row = 141 
Idle = 7464 

BW Util Bottlenecks: 
RCDc_limit = 0 
RCDWRc_limit = 1179 
WTRc_limit = 22165 
RTWc_limit = 20993 
CCDLc_limit = 0 
rwq = 0 
CCDLc_limit_alone = 0 
WTRc_limit_alone = 22165 
RTWc_limit_alone = 20993 

Commands details: 
total_CMD = 51024 
n_nop = 29998 
Read = 0 
Write = 9600 
L2_Alloc = 9600 
L2_WB = 0 
n_act = 1167 
n_pre = 1151 
n_ref = 0 
n_req = 4800 
total_req = 19200 

Dual Bus Interface Util: 
issued_total_row = 2318 
issued_total_col = 19200 
Row_Bus_Util =  0.045430 
CoL_Bus_Util = 0.376294 
Either_Row_CoL_Bus_Util = 0.412081 
Issued_on_Two_Bus_Simul_Util = 0.009643 
issued_two_Eff = 0.023400 
queue_avg = 44.682110 


dram_util_bins: 0 0 0 0 0 0 0 0 0 0
dram_eff_bins: 0 0 0 0 0 0 0 0 0 0
mrqq: max=64 avg=44.6821
Memory Partition 7: 
Cache L2_bank_014:
MSHR contents

Cache L2_bank_015:
MSHR contents

In Dram Latency Queue (total = 0): 
DRAM[7]: 16 bks, busW=4 BL=8 CL=12, tRRD=6 tCCD=2, tRCD=12 tRAS=28 tRP=12 tRC=40
n_cmd=51024 n_nop=29873 n_act=1220 n_pre=1204 n_ref_event=0 n_req=4800 n_rd=0 n_rd_L2_A=9600 n_write=9600 n_wr_bk=0 bw_util=0.7526
n_activity=43311 dram_eff=0.8866
bk0: 704a 18192i bk1: 704a 18364i bk2: 640a 21405i bk3: 640a 21290i bk4: 576a 24755i bk5: 576a 24139i bk6: 576a 22947i bk7: 576a 22403i bk8: 576a 22508i bk9: 576a 22007i bk10: 576a 22059i bk11: 576a 21949i bk12: 576a 23119i bk13: 576a 22749i bk14: 576a 24916i bk15: 576a 24769i 

------------------------------------------------------------------------

Row_Buffer_Locality = 0.745833
Row_Buffer_Locality_read = 0.999167
Row_Buffer_Locality_write = 0.492500
Bank_Level_Parallism = 10.726234
Bank_Level_Parallism_Col = 10.318455
Bank_Level_Parallism_Ready = 5.897145
write_to_read_ratio_blp_rw_average = 0.465123
GrpLevelPara = 1.000000 

BW Util details:
bwutil = 0.752587 
total_CMD = 51024 
util_bw = 38400 
Wasted_Col = 4787 
Wasted_Row = 54 
Idle = 7783 

BW Util Bottlenecks: 
RCDc_limit = 10 
RCDWRc_limit = 1162 
WTRc_limit = 22002 
RTWc_limit = 20771 
CCDLc_limit = 0 
rwq = 0 
CCDLc_limit_alone = 0 
WTRc_limit_alone = 22002 
RTWc_limit_alone = 20771 

Commands details: 
total_CMD = 51024 
n_nop = 29873 
Read = 0 
Write = 9600 
L2_Alloc = 9600 
L2_WB = 0 
n_act = 1220 
n_pre = 1204 
n_ref = 0 
n_req = 4800 
total_req = 19200 

Dual Bus Interface Util: 
issued_total_row = 2424 
issued_total_col = 19200 
Row_Bus_Util =  0.047507 
CoL_Bus_Util = 0.376294 
Either_Row_CoL_Bus_Util = 0.414530 
Issued_on_Two_Bus_Simul_Util = 0.009270 
issued_two_Eff = 0.022363 
queue_avg = 47.859421 


dram_util_bins: 0 0 0 0 0 0 0 0 0 0
dram_eff_bins: 0 0 0 0 0 0 0 0 0 0
mrqq: max=64 avg=47.8594

========= L2 cache stats =========
L2_cache_bank[0]: Access = 1220, Miss = 1201, Miss_rate = 0.984, Pending_hits = 19, Reservation_fails = 5
L2_cache_bank[1]: Access = 1220, Miss = 1201, Miss_rate = 0.984, Pending_hits = 19, Reservation_fails = 3
L2_cache_bank[2]: Access = 1200, Miss = 1200, Miss_rate = 1.000, Pending_hits = 0, Reservation_fails = 3
L2_cache_bank[3]: Access = 1200, Miss = 1200, Miss_rate = 1.000, Pending_hits = 0, Reservation_fails = 5
L2_cache_bank[4]: Access = 1200, Miss = 1200, Miss_rate = 1.000, Pending_hits = 0, Reservation_fails = 5
L2_cache_bank[5]: Access = 1200, Miss = 1200, Miss_rate = 1.000, Pending_hits = 0, Reservation_fails = 7
L2_cache_bank[6]: Access = 1200, Miss = 1200, Miss_rate = 1.000, Pending_hits = 0, Reservation_fails = 2
L2_cache_bank[7]: Access = 1200, Miss = 1200, Miss_rate = 1.000, Pending_hits = 0, Reservation_fails = 2
L2_cache_bank[8]: Access = 1200, Miss = 1200, Miss_rate = 1.000, Pending_hits = 0, Reservation_fails = 2
L2_cache_bank[9]: Access = 1200, Miss = 1200, Miss_rate = 1.000, Pending_hits = 0, Reservation_fails = 1
L2_cache_bank[10]: Access = 1200, Miss = 1200, Miss_rate = 1.000, Pending_hits = 0, Reservation_fails = 4
L2_cache_bank[11]: Access = 1200, Miss = 1200, Miss_rate = 1.000, Pending_hits = 0, Reservation_fails = 3
L2_cache_bank[12]: Access = 1200, Miss = 1200, Miss_rate = 1.000, Pending_hits = 0, Reservation_fails = 4
L2_cache_bank[13]: Access = 1200, Miss = 1200, Miss_rate = 1.000, Pending_hits = 0, Reservation_fails = 5
L2_cache_bank[14]: Access = 1200, Miss = 1200, Miss_rate = 1.000, Pending_hits = 0, Reservation_fails = 7
L2_cache_bank[15]: Access = 1200, Miss = 1200, Miss_rate = 1.000, Pending_hits = 0, Reservation_fails = 8
L2_total_cache_accesses = 19240
L2_total_cache_misses = 19202
L2_total_cache_miss_rate = 0.9980
L2_total_cache_pending_hits = 38
L2_total_cache_reservation_fails = 66
L2_total_cache_breakdown:
	L2_cache_stats_breakdown[GLOBAL_ACC_R][HIT] = 0
	L2_cache_stats_breakdown[GLOBAL_ACC_R][HIT_RESERVED] = 0
	L2_cache_stats_breakdown[GLOBAL_ACC_R][MISS] = 0
	L2_cache_stats_breakdown[GLOBAL_ACC_R][RESERVATION_FAIL] = 0
	L2_cache_stats_breakdown[GLOBAL_ACC_R][SECTOR_MISS] = 0
	L2_cache_stats_breakdown[GLOBAL_ACC_R][MSHR_HIT] = 0
	L2_cache_stats_breakdown[LOCAL_ACC_R][HIT] = 0
	L2_cache_stats_breakdown[LOCAL_ACC_R][HIT_RESERVED] = 0
	L2_cache_stats_breakdown[LOCAL_ACC_R][MISS] = 0
	L2_cache_stats_breakdown[LOCAL_ACC_R][RESERVATION_FAIL] = 0
	L2_cache_stats_breakdown[LOCAL_ACC_R][SECTOR_MISS] = 0
	L2_cache_stats_breakdown[LOCAL_ACC_R][MSHR_HIT] = 0
	L2_cache_stats_breakdown[CONST_ACC_R][HIT] = 0
	L2_cache_stats_breakdown[CONST_ACC_R][HIT_RESERVED] = 0
	L2_cache_stats_breakdown[CONST_ACC_R][MISS] = 0
	L2_cache_stats_breakdown[CONST_ACC_R][RESERVATION_FAIL] = 0
	L2_cache_stats_breakdown[CONST_ACC_R][SECTOR_MISS] = 0
	L2_cache_stats_breakdown[CONST_ACC_R][MSHR_HIT] = 0
	L2_cache_stats_breakdown[TEXTURE_ACC_R][HIT] = 0
	L2_cache_stats_breakdown[TEXTURE_ACC_R][HIT_RESERVED] = 0
	L2_cache_stats_breakdown[TEXTURE_ACC_R][MISS] = 0
	L2_cache_stats_breakdown[TEXTURE_ACC_R][RESERVATION_FAIL] = 0
	L2_cache_stats_breakdown[TEXTURE_ACC_R][SECTOR_MISS] = 0
	L2_cache_stats_breakdown[TEXTURE_ACC_R][MSHR_HIT] = 0
	L2_cache_stats_breakdown[GLOBAL_ACC_W][HIT] = 0
	L2_cache_stats_breakdown[GLOBAL_ACC_W][HIT_RESERVED] = 0
	L2_cache_stats_breakdown[GLOBAL_ACC_W][MISS] = 19200
	L2_cache_stats_breakdown[GLOBAL_ACC_W][RESERVATION_FAIL] = 66
	L2_cache_stats_breakdown[GLOBAL_ACC_W][SECTOR_MISS] = 0
	L2_cache_stats_breakdown[GLOBAL_ACC_W][MSHR_HIT] = 0
	L2_cache_stats_breakdown[LOCAL_ACC_W][HIT] = 0
	L2_cache_stats_breakdown[LOCAL_ACC_W][HIT_RESERVED] = 0
	L2_cache_stats_breakdown[LOCAL_ACC_W][MISS] = 0
	L2_cache_stats_breakdown[LOCAL_ACC_W][RESERVATION_FAIL] = 0
	L2_cache_stats_breakdown[LOCAL_ACC_W][SECTOR_MISS] = 0
	L2_cache_stats_breakdown[LOCAL_ACC_W][MSHR_HIT] = 0
	L2_cache_stats_breakdown[L1_WRBK_ACC][HIT] = 0
	L2_cache_stats_breakdown[L1_WRBK_ACC][HIT_RESERVED] = 0
	L2_cache_stats_breakdown[L1_WRBK_ACC][MISS] = 0
	L2_cache_stats_breakdown[L1_WRBK_ACC][RESERVATION_FAIL] = 0
	L2_cache_stats_breakdown[L1_WRBK_ACC][SECTOR_MISS] = 0
	L2_cache_stats_breakdown[L1_WRBK_ACC][MSHR_HIT] = 0
	L2_cache_stats_breakdown[L2_WRBK_ACC][HIT] = 0
	L2_cache_stats_breakdown[L2_WRBK_ACC][HIT_RESERVED] = 0
	L2_cache_stats_breakdown[L2_WRBK_ACC][MISS] = 0
	L2_cache_stats_breakdown[L2_WRBK_ACC][RESERVATION_FAIL] = 0
	L2_cache_stats_breakdown[L2_WRBK_ACC][SECTOR_MISS] = 0
	L2_cache_stats_breakdown[L2_WRBK_ACC][MSHR_HIT] = 0
	L2_cache_stats_breakdown[INST_ACC_R][HIT] = 0
	L2_cache_stats_breakdown[INST_ACC_R][HIT_RESERVED] = 38
	L2_cache_stats_breakdown[INST_ACC_R][MISS] = 2
	L2_cache_stats_breakdown[INST_ACC_R][RESERVATION_FAIL] = 0
	L2_cache_stats_breakdown[INST_ACC_R][SECTOR_MISS] = 0
	L2_cache_stats_breakdown[INST_ACC_R][MSHR_HIT] = 38
	L2_cache_stats_breakdown[L1_WR_ALLOC_R][HIT] = 0
	L2_cache_stats_breakdown[L1_WR_ALLOC_R][HIT_RESERVED] = 0
	L2_cache_stats_breakdown[L1_WR_ALLOC_R][MISS] = 0
	L2_cache_stats_breakdown[L1_WR_ALLOC_R][RESERVATION_FAIL] = 0
	L2_cache_stats_breakdown[L1_WR_ALLOC_R][SECTOR_MISS] = 0
	L2_cache_stats_breakdown[L1_WR_ALLOC_R][MSHR_HIT] = 0
	L2_cache_stats_breakdown[L2_WR_ALLOC_R][HIT] = 0
	L2_cache_stats_breakdown[L2_WR_ALLOC_R][HIT_RESERVED] = 0
	L2_cache_stats_breakdown[L2_WR_ALLOC_R][MISS] = 0
	L2_cache_stats_breakdown[L2_WR_ALLOC_R][RESERVATION_FAIL] = 0
	L2_cache_stats_breakdown[L2_WR_ALLOC_R][SECTOR_MISS] = 0
	L2_cache_stats_breakdown[L2_WR_ALLOC_R][MSHR_HIT] = 0
	L2_cache_stats_breakdown[GLOBAL_ACC_W][TOTAL_ACCESS] = 19200
	L2_cache_stats_breakdown[INST_ACC_R][TOTAL_ACCESS] = 40
L2_total_cache_reservation_fail_breakdown:
	L2_cache_stats_fail_breakdown[GLOBAL_ACC_W][MISS_QUEUE_FULL] = 66
L2_cache_data_port_util = 0.000
L2_cache_fill_port_util = 0.146

icnt_total_pkts_mem_to_simt=19400
icnt_total_pkts_simt_to_mem=96040
LD_mem_lat_dist  0 0 0 0 0 0 0 0 0 0 0 0 0 0 0 0 0 0 0 0 0 0 0 0 0 0 0
ST_mem_lat_dist  0 0 0 0 0 0 0 0 0 0 0 0 0 0 0 0 0 0 0 0 0 0 0 0 0 0 0
----------------------------Interconnect-DETAILS--------------------------------
Class 0:
Packet latency average = 51.9061
	minimum = 6
	maximum = 1130
Network latency average = 37.5907
	minimum = 6
	maximum = 776
Slowest packet = 1082
Flit latency average = 45.9038
	minimum = 6
	maximum = 772
Slowest flit = 24415
Fragmentation average = 2.09171
	minimum = 0
	maximum = 496
Injected packet rate average = 0.0234641
	minimum = 0 (at node 36)
	maximum = 0.0410378 (at node 13)
Accepted packet rate average = 0.0234641
	minimum = 0 (at node 36)
	maximum = 0.0410378 (at node 13)
Injected flit rate average = 0.0703924
	minimum = 0 (at node 36)
	maximum = 0.204945 (at node 13)
Accepted flit rate average= 0.0703924
	minimum = 0 (at node 36)
	maximum = 0.183542 (at node 20)
Injected packet length average = 3
Accepted packet length average = 3
Total in-flight flits = 0 (0 measured)
====== Overall Traffic Statistics ======
====== Traffic class 0 ======
Packet latency average = 51.9061 (1 samples)
	minimum = 6 (1 samples)
	maximum = 1130 (1 samples)
Network latency average = 37.5907 (1 samples)
	minimum = 6 (1 samples)
	maximum = 776 (1 samples)
Flit latency average = 45.9038 (1 samples)
	minimum = 6 (1 samples)
	maximum = 772 (1 samples)
Fragmentation average = 2.09171 (1 samples)
	minimum = 0 (1 samples)
	maximum = 496 (1 samples)
Injected packet rate average = 0.0234641 (1 samples)
	minimum = 0 (1 samples)
	maximum = 0.0410378 (1 samples)
Accepted packet rate average = 0.0234641 (1 samples)
	minimum = 0 (1 samples)
	maximum = 0.0410378 (1 samples)
Injected flit rate average = 0.0703924 (1 samples)
	minimum = 0 (1 samples)
[...]
MSHR contents

Cache L2_bank_005:
MSHR contents

In Dram Latency Queue (total = 0): 
DRAM[2]: 16 bks, busW=4 BL=8 CL=12, tRRD=6 tCCD=2, tRCD=12 tRAS=28 tRP=12 tRC=40
n_cmd=201296 n_nop=146273 n_act=2788 n_pre=2772 n_ref_event=0 n_req=12608 n_rd=10744 n_rd_L2_A=18368 n_write=18364 n_wr_bk=2944 bw_util=0.501
n_activity=117595 dram_eff=0.8575
bk0: 2480a 120298i bk1: 2480a 119270i bk2: 2020a 127214i bk3: 2020a 126204i bk4: 1648a 134043i bk5: 1648a 132972i bk6: 1592a 134293i bk7: 1592a 134235i bk8: 2084a 129158i bk9: 2084a 128061i bk10: 1692a 130873i bk11: 1692a 132297i bk12: 1512a 134568i bk13: 1512a 134522i bk14: 1528a 140937i bk15: 1528a 140542i 

------------------------------------------------------------------------

Row_Buffer_Locality = 0.778871
Row_Buffer_Locality_read = 0.859852
Row_Buffer_Locality_write = 0.668293
Bank_Level_Parallism = 9.855710
Bank_Level_Parallism_Col = 9.605222
Bank_Level_Parallism_Ready = 5.374015
write_to_read_ratio_blp_rw_average = 0.456644
GrpLevelPara = 1.000000 

BW Util details:
bwutil = 0.500954 
total_CMD = 201296 
util_bw = 100840 
Wasted_Col = 12804 
Wasted_Row = 1555 
Idle = 86097 

BW Util Bottlenecks: 
RCDc_limit = 2145 
RCDWRc_limit = 1981 
WTRc_limit = 45480 
RTWc_limit = 46028 
CCDLc_limit = 0 
rwq = 0 
CCDLc_limit_alone = 0 
WTRc_limit_alone = 45480 
RTWc_limit_alone = 46028 

Commands details: 
total_CMD = 201296 
n_nop = 146273 
Read = 10744 
Write = 18364 
L2_Alloc = 18368 
L2_WB = 2944 
n_act = 2788 
n_pre = 2772 
n_ref = 0 
n_req = 12608 
total_req = 50420 

Dual Bus Interface Util: 
issued_total_row = 5560 
issued_total_col = 50420 
Row_Bus_Util =  0.027621 
CoL_Bus_Util = 0.250477 
Either_Row_CoL_Bus_Util = 0.273344 
Issued_on_Two_Bus_Simul_Util = 0.004754 
issued_two_Eff = 0.017393 
queue_avg = 29.091820 


dram_util_bins: 0 0 0 0 0 0 0 0 0 0
dram_eff_bins: 0 0 0 0 0 0 0 0 0 0
mrqq: max=64 avg=29.0918
Memory Partition 3: 
Cache L2_bank_006:
MSHR contents

Cache L2_bank_007:
MSHR contents

In Dram Latency Queue (total = 0): 
DRAM[3]: 16 bks, busW=4 BL=8 CL=12, tRRD=6 tCCD=2, tRCD=12 tRAS=28 tRP=12 tRC=40
n_cmd=201296 n_nop=146808 n_act=2829 n_pre=2813 n_ref_event=0 n_req=12434 n_rd=10568 n_rd_L2_A=18120 n_write=18116 n_wr_bk=2920 bw_util=0.494
n_activity=115788 dram_eff=0.8589
bk0: 2460a 127196i bk1: 2460a 125193i bk2: 1932a 132265i bk3: 1932a 130190i bk4: 1540a 141375i bk5: 1540a 140391i bk6: 1576a 141975i bk7: 1576a 140916i bk8: 2068a 135900i bk9: 2068a 133976i bk10: 1692a 137270i bk11: 1692a 137080i bk12: 1504a 143716i bk13: 1504a 142798i bk14: 1572a 144824i bk15: 1572a 143843i 

------------------------------------------------------------------------

Row_Buffer_Locality = 0.772479
Row_Buffer_Locality_read = 0.870887
Row_Buffer_Locality_write = 0.638350
Bank_Level_Parallism = 9.110941
Bank_Level_Parallism_Col = 8.800611
Bank_Level_Parallism_Ready = 5.022640
write_to_read_ratio_blp_rw_average = 0.449020
GrpLevelPara = 1.000000 

BW Util details:
bwutil = 0.494039 
total_CMD = 201296 
util_bw = 99448 
Wasted_Col = 13186 
Wasted_Row = 1056 
Idle = 87606 

BW Util Bottlenecks: 
RCDc_limit = 1765 
RCDWRc_limit = 2211 
WTRc_limit = 45276 
RTWc_limit = 43611 
CCDLc_limit = 0 
rwq = 0 
CCDLc_limit_alone = 0 
WTRc_limit_alone = 45276 
RTWc_limit_alone = 43611 

Commands details: 
total_CMD = 201296 
n_nop = 146808 
Read = 10568 
Write = 18116 
L2_Alloc = 18120 
L2_WB = 2920 
n_act = 2829 
n_pre = 2813 
n_ref = 0 
n_req = 12434 
total_req = 49724 

Dual Bus Interface Util: 
issued_total_row = 5642 
issued_total_col = 49724 
Row_Bus_Util =  0.028028 
CoL_Bus_Util = 0.247019 
Either_Row_CoL_Bus_Util = 0.270686 
Issued_on_Two_Bus_Simul_Util = 0.004362 
issued_two_Eff = 0.016114 
queue_avg = 25.420599 


dram_util_bins: 0 0 0 0 0 0 0 0 0 0
dram_eff_bins: 0 0 0 0 0 0 0 0 0 0
mrqq: max=64 avg=25.4206
Memory Partition 4: 
Cache L2_bank_008:
MSHR contents

Cache L2_bank_009:
MSHR contents

In Dram Latency Queue (total = 0): 
DRAM[4]: 16 bks, busW=4 BL=8 CL=12, tRRD=6 tCCD=2, tRCD=12 tRAS=28 tRP=12 tRC=40
n_cmd=201296 n_nop=145988 n_act=2840 n_pre=2824 n_ref_event=0 n_req=12645 n_rd=10792 n_rd_L2_A=18436 n_write=18432 n_wr_bk=2908 bw_util=0.5024
n_activity=117723 dram_eff=0.8591
bk0: 2460a 123464i bk1: 2460a 121949i bk2: 2048a 125558i bk3: 2048a 124609i bk4: 1668a 133866i bk5: 1668a 132587i bk6: 1608a 132666i bk7: 1608a 132065i bk8: 2080a 130040i bk9: 2080a 128252i bk10: 1728a 132570i bk11: 1728a 132281i bk12: 1500a 140258i bk13: 1500a 139417i bk14: 1520a 141487i bk15: 1524a 140702i 

------------------------------------------------------------------------

Row_Buffer_Locality = 0.775405
Row_Buffer_Locality_read = 0.858492
Row_Buffer_Locality_write = 0.661671
Bank_Level_Parallism = 9.743840
Bank_Level_Parallism_Col = 9.460267
Bank_Level_Parallism_Ready = 5.310290
write_to_read_ratio_blp_rw_average = 0.452353
GrpLevelPara = 1.000000 

BW Util details:
bwutil = 0.502424 
total_CMD = 201296 
util_bw = 101136 
Wasted_Col = 12862 
Wasted_Row = 1306 
Idle = 85992 

BW Util Bottlenecks: 
RCDc_limit = 2046 
RCDWRc_limit = 1916 
WTRc_limit = 45502 
RTWc_limit = 47104 
CCDLc_limit = 0 
rwq = 0 
CCDLc_limit_alone = 0 
WTRc_limit_alone = 45502 
RTWc_limit_alone = 47104 

Commands details: 
total_CMD = 201296 
n_nop = 145988 
Read = 10792 
Write = 18432 
L2_Alloc = 18436 
L2_WB = 2908 
n_act = 2840 
n_pre = 2824 
n_ref = 0 
n_req = 12645 
total_req = 50568 

Dual Bus Interface Util: 
issued_total_row = 5664 
issued_total_col = 50568 
Row_Bus_Util =  0.028138 
CoL_Bus_Util = 0.251212 
Either_Row_CoL_Bus_Util = 0.274760 
Issued_on_Two_Bus_Simul_Util = 0.004590 
issued_two_Eff = 0.016706 
queue_avg = 29.023502 


dram_util_bins: 0 0 0 0 0 0 0 0 0 0
dram_eff_bins: 0 0 0 0 0 0 0 0 0 0
mrqq: max=64 avg=29.0235
Memory Partition 5: 
Cache L2_bank_010:
MSHR contents

Cache L2_bank_011:
MSHR contents

In Dram Latency Queue (total = 0): 
DRAM[5]: 16 bks, busW=4 BL=8 CL=12, tRRD=6 tCCD=2, tRCD=12 tRAS=28 tRP=12 tRC=40
n_cmd=201296 n_nop=146673 n_act=2876 n_pre=2860 n_ref_event=0 n_req=12443 n_rd=10648 n_rd_L2_A=18112 n_write=18109 n_wr_bk=2888 bw_util=0.4944
n_activity=116342 dram_eff=0.8554
bk0: 2488a 125867i bk1: 2488a 124835i bk2: 1940a 131300i bk3: 1940a 130559i bk4: 1524a 140633i bk5: 1524a 140244i bk6: 1536a 141914i bk7: 1536a 142094i bk8: 2056a 134082i bk9: 2056a 133711i bk10: 1692a 135807i bk11: 1692a 136273i bk12: 1544a 143506i bk13: 1544a 141852i bk14: 1600a 143876i bk15: 1600a 142202i 

------------------------------------------------------------------------

Row_Buffer_Locality = 0.768866
Row_Buffer_Locality_read = 0.869541
Row_Buffer_Locality_write = 0.631068
Bank_Level_Parallism = 9.163363
Bank_Level_Parallism_Col = 8.859825
Bank_Level_Parallism_Ready = 5.049060
write_to_read_ratio_blp_rw_average = 0.452664
GrpLevelPara = 1.000000 

BW Util details:
bwutil = 0.494366 
total_CMD = 201296 
util_bw = 99514 
Wasted_Col = 13416 
Wasted_Row = 1204 
Idle = 87162 

BW Util Bottlenecks: 
RCDc_limit = 1943 
RCDWRc_limit = 2223 
WTRc_limit = 44318 
RTWc_limit = 44017 
CCDLc_limit = 0 
rwq = 0 
CCDLc_limit_alone = 0 
WTRc_limit_alone = 44318 
RTWc_limit_alone = 44017 

Commands details: 
total_CMD = 201296 
n_nop = 146673 
Read = 10648 
Write = 18109 
L2_Alloc = 18112 
L2_WB = 2888 
n_act = 2876 
n_pre = 2860 
n_ref = 0 
n_req = 12443 
total_req = 49757 

Dual Bus Interface Util: 
issued_total_row = 5736 
issued_total_col = 49757 
Row_Bus_Util =  0.028495 
CoL_Bus_Util = 0.247183 
Either_Row_CoL_Bus_Util = 0.271357 
Issued_on_Two_Bus_Simul_Util = 0.004322 
issued_two_Eff = 0.015927 
queue_avg = 26.145910 


dram_util_bins: 0 0 0 0 0 0 0 0 0 0
dram_eff_bins: 0 0 0 0 0 0 0 0 0 0
mrqq: max=64 avg=26.1459
Memory Partition 6: 
Cache L2_bank_012:
MSHR contents

Cache L2_bank_013:
MSHR contents

In Dram Latency Queue (total = 0): 
DRAM[6]: 16 bks, busW=4 BL=8 CL=12, tRRD=6 tCCD=2, tRCD=12 tRAS=28 tRP=12 tRC=40
n_cmd=201296 n_nop=146261 n_act=2801 n_pre=2785 n_ref_event=0 n_req=12595 n_rd=10696 n_rd_L2_A=18368 n_write=18367 n_wr_bk=2928 bw_util=0.5003
n_activity=117401 dram_eff=0.8579
bk0: 2452a 122697i bk1: 2452a 120514i bk2: 1988a 125583i bk3: 1988a 125482i bk4: 1656a 135692i bk5: 1656a 133682i bk6: 1632a 132741i bk7: 1632a 133384i bk8: 2088a 129502i bk9: 2088a 128564i bk10: 1728a 132892i bk11: 1728a 132488i bk12: 1476a 138331i bk13: 1476a 137140i bk14: 1512a 142454i bk15: 1512a 140351i 

------------------------------------------------------------------------

Row_Buffer_Locality = 0.777610
Row_Buffer_Locality_read = 0.867603
Row_Buffer_Locality_write = 0.654907
Bank_Level_Parallism = 9.764541
Bank_Level_Parallism_Col = 9.502341
Bank_Level_Parallism_Ready = 5.318604
write_to_read_ratio_blp_rw_average = 0.449890
GrpLevelPara = 1.000000 

BW Util details:
bwutil = 0.500348 
total_CMD = 201296 
util_bw = 100718 
Wasted_Col = 12896 
Wasted_Row = 1459 
Idle = 86223 

BW Util Bottlenecks: 
RCDc_limit = 2368 
RCDWRc_limit = 1822 
WTRc_limit = 45900 
RTWc_limit = 46139 
CCDLc_limit = 0 
rwq = 0 
CCDLc_limit_alone = 0 
WTRc_limit_alone = 45900 
RTWc_limit_alone = 46139 

Commands details: 
total_CMD = 201296 
n_nop = 146261 
Read = 10696 
Write = 18367 
L2_Alloc = 18368 
L2_WB = 2928 
n_act = 2801 
n_pre = 2785 
n_ref = 0 
n_req = 12595 
total_req = 50359 

Dual Bus Interface Util: 
issued_total_row = 5586 
issued_total_col = 50359 
Row_Bus_Util =  0.027750 
CoL_Bus_Util = 0.250174 
Either_Row_CoL_Bus_Util = 0.273403 
Issued_on_Two_Bus_Simul_Util = 0.004521 
issued_two_Eff = 0.016535 
queue_avg = 28.557756 


dram_util_bins: 0 0 0 0 0 0 0 0 0 0
dram_eff_bins: 0 0 0 0 0 0 0 0 0 0
mrqq: max=64 avg=28.5578
Memory Partition 7: 
Cache L2_bank_014:
MSHR contents

Cache L2_bank_015:
MSHR contents

In Dram Latency Queue (total = 0): 
DRAM[7]: 16 bks, busW=4 BL=8 CL=12, tRRD=6 tCCD=2, tRCD=12 tRAS=28 tRP=12 tRC=40
n_cmd=201296 n_nop=146964 n_act=2805 n_pre=2789 n_ref_event=0 n_req=12411 n_rd=10464 n_rd_L2_A=18140 n_write=18135 n_wr_bk=2896 bw_util=0.4932
n_activity=115650 dram_eff=0.8584
bk0: 2468a 125285i bk1: 2468a 124792i bk2: 1916a 132203i bk3: 1916a 131440i bk4: 1512a 141773i bk5: 1512a 140817i bk6: 1548a 140240i bk7: 1548a 139670i bk8: 2068a 132906i bk9: 2072a 131132i bk10: 1688a 132778i bk11: 1688a 133727i bk12: 1516a 141559i bk13: 1516a 141301i bk14: 1584a 142973i bk15: 1584a 142024i 

------------------------------------------------------------------------

Row_Buffer_Locality = 0.773991
Row_Buffer_Locality_read = 0.871766
Row_Buffer_Locality_write = 0.641065
Bank_Level_Parallism = 9.331943
Bank_Level_Parallism_Col = 9.025331
Bank_Level_Parallism_Ready = 5.110982
write_to_read_ratio_blp_rw_average = 0.452718
GrpLevelPara = 1.000000 

BW Util details:
bwutil = 0.493154 
total_CMD = 201296 
util_bw = 99270 
Wasted_Col = 13291 
Wasted_Row = 1042 
Idle = 87693 

BW Util Bottlenecks: 
RCDc_limit = 2086 
RCDWRc_limit = 1915 
WTRc_limit = 44810 
RTWc_limit = 45657 
CCDLc_limit = 0 
rwq = 0 
CCDLc_limit_alone = 0 
WTRc_limit_alone = 44810 
RTWc_limit_alone = 45657 

Commands details: 
total_CMD = 201296 
n_nop = 146964 
Read = 10464 
Write = 18135 
L2_Alloc = 18140 
L2_WB = 2896 
n_act = 2805 
n_pre = 2789 
n_ref = 0 
n_req = 12411 
total_req = 49635 

Dual Bus Interface Util: 
issued_total_row = 5594 
issued_total_col = 49635 
Row_Bus_Util =  0.027790 
CoL_Bus_Util = 0.246577 
Either_Row_CoL_Bus_Util = 0.269911 
Issued_on_Two_Bus_Simul_Util = 0.004456 
issued_two_Eff = 0.016510 
queue_avg = 26.765659 


dram_util_bins: 0 0 0 0 0 0 0 0 0 0
dram_eff_bins: 0 0 0 0 0 0 0 0 0 0
mrqq: max=64 avg=26.7657

========= L2 cache stats =========
L2_cache_bank[0]: Access = 6036, Miss = 3641, Miss_rate = 0.603, Pending_hits = 19, Reservation_fails = 46
L2_cache_bank[1]: Access = 6036, Miss = 3641, Miss_rate = 0.603, Pending_hits = 19, Reservation_fails = 50
L2_cache_bank[2]: Access = 6036, Miss = 3597, Miss_rate = 0.596, Pending_hits = 0, Reservation_fails = 42
L2_cache_bank[3]: Access = 6036, Miss = 3595, Miss_rate = 0.596, Pending_hits = 0, Reservation_fails = 23
L2_cache_bank[4]: Access = 6036, Miss = 3639, Miss_rate = 0.603, Pending_hits = 5, Reservation_fails = 35
L2_cache_bank[5]: Access = 6036, Miss = 3639, Miss_rate = 0.603, Pending_hits = 0, Reservation_fails = 39
L2_cache_bank[6]: Access = 6016, Miss = 3586, Miss_rate = 0.596, Pending_hits = 2, Reservation_fails = 31
L2_cache_bank[7]: Access = 6016, Miss = 3586, Miss_rate = 0.596, Pending_hits = 0, Reservation_fails = 28
L2_cache_bank[8]: Access = 6016, Miss = 3653, Miss_rate = 0.607, Pending_hits = 2, Reservation_fails = 34
L2_cache_bank[9]: Access = 6016, Miss = 3654, Miss_rate = 0.607, Pending_hits = 0, Reservation_fails = 33
L2_cache_bank[10]: Access = 6016, Miss = 3595, Miss_rate = 0.598, Pending_hits = 1, Reservation_fails = 26
L2_cache_bank[11]: Access = 6016, Miss = 3595, Miss_rate = 0.598, Pending_hits = 2, Reservation_fails = 22
L2_cache_bank[12]: Access = 6016, Miss = 3633, Miss_rate = 0.604, Pending_hits = 5, Reservation_fails = 40
L2_cache_bank[13]: Access = 6016, Miss = 3633, Miss_rate = 0.604, Pending_hits = 0, Reservation_fails = 51
L2_cache_bank[14]: Access = 6016, Miss = 3575, Miss_rate = 0.594, Pending_hits = 0, Reservation_fails = 35
L2_cache_bank[15]: Access = 6016, Miss = 3576, Miss_rate = 0.594, Pending_hits = 1, Reservation_fails = 36
L2_total_cache_accesses = 96376
L2_total_cache_misses = 57838
L2_total_cache_miss_rate = 0.6001
L2_total_cache_pending_hits = 56
L2_total_cache_reservation_fails = 571
L2_total_cache_breakdown:
	L2_cache_stats_breakdown[GLOBAL_ACC_R][HIT] = 29890
	L2_cache_stats_breakdown[GLOBAL_ACC_R][HIT_RESERVED] = 0
	L2_cache_stats_breakdown[GLOBAL_ACC_R][MISS] = 21310
	L2_cache_stats_breakdown[GLOBAL_ACC_R][RESERVATION_FAIL] = 41
	L2_cache_stats_breakdown[GLOBAL_ACC_R][SECTOR_MISS] = 0
	L2_cache_stats_breakdown[GLOBAL_ACC_R][MSHR_HIT] = 0
	L2_cache_stats_breakdown[LOCAL_ACC_R][HIT] = 0
	L2_cache_stats_breakdown[LOCAL_ACC_R][HIT_RESERVED] = 0
	L2_cache_stats_breakdown[LOCAL_ACC_R][MISS] = 0
	L2_cache_stats_breakdown[LOCAL_ACC_R][RESERVATION_FAIL] = 0
	L2_cache_stats_breakdown[LOCAL_ACC_R][SECTOR_MISS] = 0
	L2_cache_stats_breakdown[LOCAL_ACC_R][MSHR_HIT] = 0
	L2_cache_stats_breakdown[CONST_ACC_R][HIT] = 0
	L2_cache_stats_breakdown[CONST_ACC_R][HIT_RESERVED] = 0
	L2_cache_stats_breakdown[CONST_ACC_R][MISS] = 0
	L2_cache_stats_breakdown[CONST_ACC_R][RESERVATION_FAIL] = 0
	L2_cache_stats_breakdown[CONST_ACC_R][SECTOR_MISS] = 0
	L2_cache_stats_breakdown[CONST_ACC_R][MSHR_HIT] = 0
	L2_cache_stats_breakdown[TEXTURE_ACC_R][HIT] = 0
	L2_cache_stats_breakdown[TEXTURE_ACC_R][HIT_RESERVED] = 0
	L2_cache_stats_breakdown[TEXTURE_ACC_R][MISS] = 0
	L2_cache_stats_breakdown[TEXTURE_ACC_R][RESERVATION_FAIL] = 0
	L2_cache_stats_breakdown[TEXTURE_ACC_R][SECTOR_MISS] = 0
	L2_cache_stats_breakdown[TEXTURE_ACC_R][MSHR_HIT] = 0
	L2_cache_stats_breakdown[GLOBAL_ACC_W][HIT] = 8519
	L2_cache_stats_breakdown[GLOBAL_ACC_W][HIT_RESERVED] = 15
	L2_cache_stats_breakdown[GLOBAL_ACC_W][MISS] = 36522
	L2_cache_stats_breakdown[GLOBAL_ACC_W][RESERVATION_FAIL] = 530
	L2_cache_stats_breakdown[GLOBAL_ACC_W][SECTOR_MISS] = 0
	L2_cache_stats_breakdown[GLOBAL_ACC_W][MSHR_HIT] = 0
	L2_cache_stats_breakdown[LOCAL_ACC_W][HIT] = 0
	L2_cache_stats_breakdown[LOCAL_ACC_W][HIT_RESERVED] = 0
	L2_cache_stats_breakdown[LOCAL_ACC_W][MISS] = 0
	L2_cache_stats_breakdown[LOCAL_ACC_W][RESERVATION_FAIL] = 0
	L2_cache_stats_breakdown[LOCAL_ACC_W][SECTOR_MISS] = 0
	L2_cache_stats_breakdown[LOCAL_ACC_W][MSHR_HIT] = 0
	L2_cache_stats_breakdown[L1_WRBK_ACC][HIT] = 0
	L2_cache_stats_breakdown[L1_WRBK_ACC][HIT_RESERVED] = 0
	L2_cache_stats_breakdown[L1_WRBK_ACC][MISS] = 0
	L2_cache_stats_breakdown[L1_WRBK_ACC][RESERVATION_FAIL] = 0
	L2_cache_stats_breakdown[L1_WRBK_ACC][SECTOR_MISS] = 0
	L2_cache_stats_breakdown[L1_WRBK_ACC][MSHR_HIT] = 0
	L2_cache_stats_breakdown[L2_WRBK_ACC][HIT] = 0
	L2_cache_stats_breakdown[L2_WRBK_ACC][HIT_RESERVED] = 0
	L2_cache_stats_breakdown[L2_WRBK_ACC][MISS] = 0
	L2_cache_stats_breakdown[L2_WRBK_ACC][RESERVATION_FAIL] = 0
	L2_cache_stats_breakdown[L2_WRBK_ACC][SECTOR_MISS] = 0
	L2_cache_stats_breakdown[L2_WRBK_ACC][MSHR_HIT] = 0
	L2_cache_stats_breakdown[INST_ACC_R][HIT] = 73
	L2_cache_stats_breakdown[INST_ACC_R][HIT_RESERVED] = 41
	L2_cache_stats_breakdown[INST_ACC_R][MISS] = 6
	L2_cache_stats_breakdown[INST_ACC_R][RESERVATION_FAIL] = 0
	L2_cache_stats_breakdown[INST_ACC_R][SECTOR_MISS] = 0
	L2_cache_stats_breakdown[INST_ACC_R][MSHR_HIT] = 41
	L2_cache_stats_breakdown[L1_WR_ALLOC_R][HIT] = 0
	L2_cache_stats_breakdown[L1_WR_ALLOC_R][HIT_RESERVED] = 0
	L2_cache_stats_breakdown[L1_WR_ALLOC_R][MISS] = 0
	L2_cache_stats_breakdown[L1_WR_ALLOC_R][RESERVATION_FAIL] = 0
	L2_cache_stats_breakdown[L1_WR_ALLOC_R][SECTOR_MISS] = 0
	L2_cache_stats_breakdown[L1_WR_ALLOC_R][MSHR_HIT] = 0
	L2_cache_stats_breakdown[L2_WR_ALLOC_R][HIT] = 0
	L2_cache_stats_breakdown[L2_WR_ALLOC_R][HIT_RESERVED] = 0
	L2_cache_stats_breakdown[L2_WR_ALLOC_R][MISS] = 0
	L2_cache_stats_breakdown[L2_WR_ALLOC_R][RESERVATION_FAIL] = 0
	L2_cache_stats_breakdown[L2_WR_ALLOC_R][SECTOR_MISS] = 0
	L2_cache_stats_breakdown[L2_WR_ALLOC_R][MSHR_HIT] = 15
	L2_cache_stats_breakdown[GLOBAL_ACC_R][TOTAL_ACCESS] = 51200
	L2_cache_stats_breakdown[GLOBAL_ACC_W][TOTAL_ACCESS] = 45056
	L2_cache_stats_breakdown[INST_ACC_R][TOTAL_ACCESS] = 120
L2_total_cache_reservation_fail_breakdown:
	L2_cache_stats_fail_breakdown[GLOBAL_ACC_R][MISS_QUEUE_FULL] = 41
	L2_cache_stats_fail_breakdown[GLOBAL_ACC_W][MISS_QUEUE_FULL] = 530
L2_cache_data_port_util = 0.078
L2_cache_fill_port_util = 0.112

icnt_total_pkts_mem_to_simt=301656
icnt_total_pkts_simt_to_mem=275832
LD_mem_lat_dist  0 0 0 0 0 0 0 0 0 0 0 0 0 0 0 0 0 0 0 0 0 0 0 0 0 0 0
ST_mem_lat_dist  0 0 0 0 0 0 0 0 0 0 0 0 0 0 0 0 0 0 0 0 0 0 0 0 0 0 0
----------------------------Interconnect-DETAILS--------------------------------
Class 0:
Packet latency average = 73.3346
	minimum = 6
	maximum = 1468
Network latency average = 45.6541
	minimum = 6
	maximum = 1172
Slowest packet = 1082
Flit latency average = 33.2202
	minimum = 6
	maximum = 1172
Slowest flit = 271797
Fragmentation average = 0.76229
	minimum = 0
	maximum = 604
Injected packet rate average = 0.029793
	minimum = 0 (at node 36)
	maximum = 0.0466482 (at node 20)
Accepted packet rate average = 0.029793
	minimum = 0 (at node 36)
	maximum = 0.0466482 (at node 20)
Injected flit rate average = 0.0892604
	minimum = 0 (at node 36)
	maximum = 0.146189 (at node 20)
Accepted flit rate average= 0.0892604
	minimum = 0 (at node 36)
	maximum = 0.133329 (at node 20)
Injected packet length average = 2.99602
Accepted packet length average = 2.99602
Total in-flight flits = 0 (0 measured)
====== Overall Traffic Statistics ======
====== Traffic class 0 ======
Packet latency average = 61.8271 (6 samples)
	minimum = 6 (6 samples)
	maximum = 1381.33 (6 samples)
Network latency average = 40.6317 (6 samples)
	minimum = 6 (6 samples)
	maximum = 1046.33 (6 samples)
Flit latency average = 36.4112 (6 samples)
	minimum = 6 (6 samples)
	maximum = 1045.67 (6 samples)
Fragmentation average = 1.20813 (6 samples)
	minimum = 0 (6 samples)
	maximum = 542 (6 samples)
Injected packet rate average = 0.0323625 (6 samples)
	minimum = 0 (6 samples)
	maximum = 0.0515136 (6 samples)
Accepted packet rate average = 0.0323625 (6 samples)
	minimum = 0 (6 samples)
	maximum = 0.0515136 (6 samples)
Injected flit rate average = 0.0970676 (6 samples)
	minimum = 0 (6 samples)
	maximum = 0.186579 (6 samples)
Accepted flit rate average = 0.0970676 (6 samples)
	minimum = 0 (6 samples)
	maximum = 0.185721 (6 samples)
Injected packet size average = 2.99939 (6 samples)
Accepted packet size average = 2.99939 (6 samples)
Hops average = 1 (6 samples)
----------------------------END-of-Interconnect-DETAILS-------------------------


gpgpu_simulation_time = 0 days, 0 hrs, 1 min, 16 sec (76 sec)
gpgpu_simulation_rate = 542022 (inst/sec)
gpgpu_simulation_rate = 1702 (cycle/sec)
gpgpu_silicon_slowdown = 944183x
GPGPU-Sim: *** simulation thread exiting ***
GPGPU-Sim: *** exit detected ***
