GPGPU-Sim version 4.2.0 (build gpgpu-sim_git-commit-13c67115070dc2f0876254a790d0238073ca364a-modified_590.0) configured with AccelWattch.

----------------------------------------------------------------------------
INFO - If you only care about PTX execution, ignore this message. GPGPU-Sim supports PTX execution in modern CUDA.
If you want to run PTXPLUS (sm_1x SASS) with a modern card configuration - set the envronment variable
$PTXAS_CUDA_INSTALL_PATH to point a CUDA version compabible with your card configurations (i.e. 8+ for PASCAL, 9+ for VOLTA etc..)
For example: "export $PTXAS_CUDA_INSTALL_PATH=/usr/local/cuda-9.1"

The following text describes why:
If you are using PTXPLUS, only sm_1x is supported and it requires that the app and simulator binaries are compiled in CUDA 4.2 or less.
The simulator requires it since CUDA headers desribe struct sizes in the exec which change from gen to gen.
The apps require 4.2 because new versions of CUDA tools have dropped parsing support for generating sm_1x
When running using modern config (i.e. volta) and PTXPLUS with CUDA 4.2, the $PTXAS_CUDA_INSTALL_PATH env variable is required to get proper register usage
(and hence occupancy) using a version of CUDA that knows the register usage on the real card.

----------------------------------------------------------------------------
setup_environment succeeded
Accel-Sim [build accelsim-commit-e02c99dbadefc0b9dc95317100be2a446eec142c_modified_0.0]

        *** GPGPU-Sim Simulator Version 4.2.0  [build gpgpu-sim_git-commit-13c67115070dc2f0876254a790d0238073ca364a_modified_0.0] ***


GPGPU-Sim: Configuration options:

-save_embedded_ptx                      0 # saves ptx files embedded in binary as <n>.ptx
-keep                                   0 # keep intermediate files created by GPGPU-Sim when interfacing with external programs
-gpgpu_ptx_save_converted_ptxplus                    0 # Saved converted ptxplus to a file
-gpgpu_occupancy_sm_number                   86 # The SM number to pass to ptxas when getting register usage for computing GPU occupancy. This parameter is required in the config.
-ptx_opcode_latency_int           4,4,4,4,21 # Opcode latencies for integers <ADD,MAX,MUL,MAD,DIV,SHFL>Default 1,1,19,25,145,32
-ptx_opcode_latency_fp           4,4,4,4,39 # Opcode latencies for single precision floating points <ADD,MAX,MUL,MAD,DIV>Default 1,1,1,1,30
-ptx_opcode_latency_dp      64,64,64,64,330 # Opcode latencies for double precision floating points <ADD,MAX,MUL,MAD,DIV>Default 8,8,8,8,335
-ptx_opcode_latency_sfu                   21 # Opcode latencies for SFU instructionsDefault 8
-ptx_opcode_latency_tesnor                   64 # Opcode latencies for Tensor instructionsDefault 64
-ptx_opcode_initiation_int            2,2,2,2,2 # Opcode initiation intervals for integers <ADD,MAX,MUL,MAD,DIV,SHFL>Default 1,1,4,4,32,4
-ptx_opcode_initiation_fp            1,1,1,1,2 # Opcode initiation intervals for single precision floating points <ADD,MAX,MUL,MAD,DIV>Default 1,1,1,1,5
-ptx_opcode_initiation_dp      64,64,64,64,130 # Opcode initiation intervals for double precision floating points <ADD,MAX,MUL,MAD,DIV>Default 8,8,8,8,130
-ptx_opcode_initiation_sfu                    8 # Opcode initiation intervals for sfu instructionsDefault 8
-ptx_opcode_initiation_tensor                   64 # Opcode initiation intervals for tensor instructionsDefault 64
-cdp_latency         7200,8000,100,12000,1600 # CDP API latency <cudaStreamCreateWithFlags, cudaGetParameterBufferV2_init_perWarp, cudaGetParameterBufferV2_perKernel, cudaLaunchDeviceV2_init_perWarp, cudaLaunchDevicV2_perKernel>Default 7200,8000,100,12000,1600
-network_mode                           2 # Interconnection network mode
-inter_config_file                   mesh # Interconnection network config file
-icnt_in_buffer_limit                  512 # in_buffer_limit
-icnt_out_buffer_limit                  512 # out_buffer_limit
-icnt_subnets                           2 # subnets
-icnt_arbiter_algo                      1 # arbiter_algo
-icnt_verbose                           0 # inct_verbose
-icnt_grant_cycles                      1 # grant_cycles
-gpgpu_ptx_use_cuobjdump                    1 # Use cuobjdump to extract ptx and sass from binaries
-gpgpu_experimental_lib_support                    0 # Try to extract code from cuda libraries [Broken because of unknown cudaGetExportTable]
-checkpoint_option                      0 #  checkpointing flag (0 = no checkpoint)
-checkpoint_kernel                      1 #  checkpointing during execution of which kernel (1- 1st kernel)
-checkpoint_CTA                         0 #  checkpointing after # of CTA (< less than total CTA)
-resume_option                          0 #  resume flag (0 = no resume)
-resume_kernel                          0 #  Resume from which kernel (1= 1st kernel)
-resume_CTA                             0 #  resume from which CTA 
-checkpoint_CTA_t                       0 #  resume from which CTA 
-checkpoint_insn_Y                      0 #  resume from which CTA 
-gpgpu_ptx_convert_to_ptxplus                    0 # Convert SASS (native ISA) to ptxplus and run ptxplus
-gpgpu_ptx_force_max_capability                   86 # Force maximum compute capability
-gpgpu_ptx_inst_debug_to_file                    0 # Dump executed instructions' debug information to file
-gpgpu_ptx_inst_debug_file       inst_debug.txt # Executed instructions' debug output file
-gpgpu_ptx_inst_debug_thread_uid                    1 # Thread UID for executed instructions' debug output
-gpgpu_simd_model                       1 # 1 = post-dominator
-gpgpu_shader_core_pipeline              1536:32 # shader core pipeline config, i.e., {<nthread>:<warpsize>}
-gpgpu_tex_cache:l1  N:4:128:256,L:R:m:N:L,T:512:8,128:2 # per-shader L1 texture cache  (READ-ONLY) config  {<nsets>:<bsize>:<assoc>,<rep>:<wr>:<alloc>:<wr_alloc>,<mshr>:<N>:<merge>,<mq>:<rf>}
-gpgpu_const_cache:l1 N:128:64:8,L:R:f:N:L,S:2:64,4 # per-shader L1 constant memory cache  (READ-ONLY) config  {<nsets>:<bsize>:<assoc>,<rep>:<wr>:<alloc>:<wr_alloc>,<mshr>:<N>:<merge>,<mq>} 
-gpgpu_cache:il1     N:64:128:16,L:R:f:N:L,S:2:48,4 # shader L1 instruction cache config  {<nsets>:<bsize>:<assoc>,<rep>:<wr>:<alloc>:<wr_alloc>,<mshr>:<N>:<merge>,<mq>} 
-gpgpu_cache:dl1     S:4:128:256,L:T:m:L:L,A:384:48,16:0,32 # per-shader L1 data cache config  {<nsets>:<bsize>:<assoc>,<rep>:<wr>:<alloc>:<wr_alloc>,<mshr>:<N>:<merge>,<mq> | none}
-gpgpu_l1_cache_write_ratio                   25 # L1D write ratio
-gpgpu_l1_banks                         4 # The number of L1 cache banks
-gpgpu_l1_banks_byte_interleaving                   32 # l1 banks byte interleaving granularity
-gpgpu_l1_banks_hashing_function                    0 # l1 banks hashing function
-gpgpu_l1_latency                      39 # L1 Hit Latency
-gpgpu_smem_latency                    29 # smem Latency
-gpgpu_cache:dl1PrefL1                 none # per-shader L1 data cache config  {<nsets>:<bsize>:<assoc>,<rep>:<wr>:<alloc>:<wr_alloc>,<mshr>:<N>:<merge>,<mq> | none}
-gpgpu_cache:dl1PrefShared                 none # per-shader L1 data cache config  {<nsets>:<bsize>:<assoc>,<rep>:<wr>:<alloc>:<wr_alloc>,<mshr>:<N>:<merge>,<mq> | none}
-gpgpu_gmem_skip_L1D                    0 # global memory access skip L1D cache (implements -Xptxas -dlcm=cg, default=no skip)
-gpgpu_perfect_mem                      0 # enable perfect memory mode (no cache miss)
-n_regfile_gating_group                    4 # group of lanes that should be read/written together)
-gpgpu_clock_gated_reg_file                    0 # enable clock gated reg file for power calculations
-gpgpu_clock_gated_lanes                    0 # enable clock gated lanes for power calculations
-gpgpu_shader_registers                65536 # Number of registers per shader core. Limits number of concurrent CTAs. (default 8192)
-gpgpu_registers_per_block                65536 # Maximum number of registers per CTA. (default 8192)
-gpgpu_ignore_resources_limitation                    0 # gpgpu_ignore_resources_limitation (default 0)
-gpgpu_shader_cta                      32 # Maximum number of concurrent CTAs in shader (default 32)
-gpgpu_num_cta_barriers                   16 # Maximum number of named barriers per CTA (default 16)
-gpgpu_n_clusters                      84 # number of processing clusters
-gpgpu_n_cores_per_cluster                    1 # number of simd cores per cluster
-gpgpu_n_cluster_ejection_buffer_size                   32 # number of packets in ejection buffer
-gpgpu_n_ldst_response_buffer_size                    2 # number of response packets in ld/st unit ejection buffer
-gpgpu_shmem_per_block                49152 # Size of shared memory per thread block or CTA (default 48kB)
-gpgpu_shmem_size                  102400 # Size of shared memory per shader core (default 16kB)
-gpgpu_shmem_option      0,8,16,32,64,100 # Option list of shared memory sizes
-gpgpu_unified_l1d_size                  128 # Size of unified data cache(L1D + shared memory) in KB
-gpgpu_adaptive_cache_config                    1 # adaptive_cache_config
-gpgpu_shmem_sizeDefault               102400 # Size of shared memory per shader core (default 16kB)
-gpgpu_shmem_size_PrefL1                16384 # Size of shared memory per shader core (default 16kB)
-gpgpu_shmem_size_PrefShared                16384 # Size of shared memory per shader core (default 16kB)
-gpgpu_shmem_num_banks                   32 # Number of banks in the shared memory in each shader core (default 16)
-gpgpu_shmem_limited_broadcast                    0 # Limit shared memory to do one broadcast per cycle (default on)
-gpgpu_shmem_warp_parts                    1 # Number of portions a warp is divided into for shared memory bank conflict check 
-gpgpu_mem_unit_ports                    1 # The number of memory transactions allowed per core cycle
-gpgpu_shmem_warp_parts                    1 # Number of portions a warp is divided into for shared memory bank conflict check 
-gpgpu_warpdistro_shader                   -1 # Specify which shader core to collect the warp size distribution from
-gpgpu_warp_issue_shader                    0 # Specify which shader core to collect the warp issue distribution from
-gpgpu_local_mem_map                    1 # Mapping from local memory space address to simulated GPU physical address space (default = enabled)
-gpgpu_num_reg_banks                    8 # Number of register banks (default = 8)
-gpgpu_reg_bank_use_warp_id                    0 # Use warp ID in mapping registers to banks (default = off)
-gpgpu_sub_core_model                    1 # Sub Core Volta/Pascal model (default = off)
-gpgpu_enable_specialized_operand_collector                    0 # enable_specialized_operand_collector
-gpgpu_operand_collector_num_units_sp                    4 # number of collector units (default = 4)
-gpgpu_operand_collector_num_units_dp                    0 # number of collector units (default = 0)
-gpgpu_operand_collector_num_units_sfu                    4 # number of collector units (default = 4)
-gpgpu_operand_collector_num_units_int                    0 # number of collector units (default = 0)
-gpgpu_operand_collector_num_units_tensor_core                    4 # number of collector units (default = 4)
-gpgpu_operand_collector_num_units_mem                    2 # number of collector units (default = 2)
-gpgpu_operand_collector_num_units_gen                    8 # number of collector units (default = 0)
-gpgpu_operand_collector_num_in_ports_sp                    1 # number of collector unit in ports (default = 1)
-gpgpu_operand_collector_num_in_ports_dp                    0 # number of collector unit in ports (default = 0)
-gpgpu_operand_collector_num_in_ports_sfu                    1 # number of collector unit in ports (default = 1)
-gpgpu_operand_collector_num_in_ports_int                    0 # number of collector unit in ports (default = 0)
-gpgpu_operand_collector_num_in_ports_tensor_core                    1 # number of collector unit in ports (default = 1)
-gpgpu_operand_collector_num_in_ports_mem                    1 # number of collector unit in ports (default = 1)
-gpgpu_operand_collector_num_in_ports_gen                    8 # number of collector unit in ports (default = 0)
-gpgpu_operand_collector_num_out_ports_sp                    1 # number of collector unit in ports (default = 1)
-gpgpu_operand_collector_num_out_ports_dp                    0 # number of collector unit in ports (default = 0)
-gpgpu_operand_collector_num_out_ports_sfu                    1 # number of collector unit in ports (default = 1)
-gpgpu_operand_collector_num_out_ports_int                    0 # number of collector unit in ports (default = 0)
-gpgpu_operand_collector_num_out_ports_tensor_core                    1 # number of collector unit in ports (default = 1)
-gpgpu_operand_collector_num_out_ports_mem                    1 # number of collector unit in ports (default = 1)
-gpgpu_operand_collector_num_out_ports_gen                    8 # number of collector unit in ports (default = 0)
-gpgpu_coalesce_arch                   86 # Coalescing arch (GT200 = 13, Fermi = 20)
-gpgpu_num_sched_per_core                    4 # Number of warp schedulers per core
-gpgpu_max_insn_issue_per_warp                    1 # Max number of instructions that can be issued per warp in one cycle by scheduler (either 1 or 2)
-gpgpu_dual_issue_diff_exec_units                    1 # should dual issue use two different execution unit resources (Default = 1)
-gpgpu_simt_core_sim_order                    1 # Select the simulation order of cores in a cluster (0=Fix, 1=Round-Robin)
-gpgpu_pipeline_widths 4,4,4,4,4,4,4,4,4,4,8,4,4 # Pipeline widths ID_OC_SP,ID_OC_DP,ID_OC_INT,ID_OC_SFU,ID_OC_MEM,OC_EX_SP,OC_EX_DP,OC_EX_INT,OC_EX_SFU,OC_EX_MEM,EX_WB,ID_OC_TENSOR_CORE,OC_EX_TENSOR_CORE
-gpgpu_tensor_core_avail                    1 # Tensor Core Available (default=0)
-gpgpu_num_sp_units                     4 # Number of SP units (default=1)
-gpgpu_num_dp_units                     4 # Number of DP units (default=0)
-gpgpu_num_int_units                    4 # Number of INT units (default=0)
-gpgpu_num_sfu_units                    4 # Number of SF units (default=1)
-gpgpu_num_tensor_core_units                    4 # Number of tensor_core units (default=1)
-gpgpu_num_mem_units                    1 # Number if ldst units (default=1) WARNING: not hooked up to anything
-gpgpu_scheduler                      lrr # Scheduler configuration: < lrr | gto | two_level_active > If two_level_active:<num_active_warps>:<inner_prioritization>:<outer_prioritization>For complete list of prioritization values see shader.h enum scheduler_prioritization_typeDefault: gto
-gpgpu_concurrent_kernel_sm                    0 # Support concurrent kernels on a SM (default = disabled)
-gpgpu_perfect_inst_const_cache                    1 # perfect inst and const cache mode, so all inst and const hits in the cache(default = disabled)
-gpgpu_inst_fetch_throughput                    4 # the number of fetched intruction per warp each cycle
-gpgpu_reg_file_port_throughput                    2 # the number ports of the register file
-specialized_unit_1         0,4,4,4,4,BRA # specialized unit config {<enabled>,<num_units>:<latency>:<initiation>,<ID_OC_SPEC>:<OC_EX_SPEC>,<NAME>}
-specialized_unit_2         0,4,4,4,4,BRA # specialized unit config {<enabled>,<num_units>:<latency>:<initiation>,<ID_OC_SPEC>:<OC_EX_SPEC>,<NAME>}
-specialized_unit_3         0,4,4,4,4,BRA # specialized unit config {<enabled>,<num_units>:<latency>:<initiation>,<ID_OC_SPEC>:<OC_EX_SPEC>,<NAME>}
-specialized_unit_4         0,4,4,4,4,BRA # specialized unit config {<enabled>,<num_units>:<latency>:<initiation>,<ID_OC_SPEC>:<OC_EX_SPEC>,<NAME>}
-specialized_unit_5         0,4,4,4,4,BRA # specialized unit config {<enabled>,<num_units>:<latency>:<initiation>,<ID_OC_SPEC>:<OC_EX_SPEC>,<NAME>}
-specialized_unit_6         0,4,4,4,4,BRA # specialized unit config {<enabled>,<num_units>:<latency>:<initiation>,<ID_OC_SPEC>:<OC_EX_SPEC>,<NAME>}
-specialized_unit_7         0,4,4,4,4,BRA # specialized unit config {<enabled>,<num_units>:<latency>:<initiation>,<ID_OC_SPEC>:<OC_EX_SPEC>,<NAME>}
-specialized_unit_8         0,4,4,4,4,BRA # specialized unit config {<enabled>,<num_units>:<latency>:<initiation>,<ID_OC_SPEC>:<OC_EX_SPEC>,<NAME>}
-gpgpu_perf_sim_memcpy                    1 # Fill the L2 cache on memcpy
-gpgpu_simple_dram_model                    0 # simple_dram_model with fixed latency and BW
-gpgpu_dram_scheduler                    1 # 0 = fifo, 1 = FR-FCFS (defaul)
-gpgpu_dram_partition_queues          64:64:64:64 # i2$:$2d:d2$:$2i
-l2_ideal                               0 # Use a ideal L2 cache that always hit
-gpgpu_cache:dl2     S:64:128:32,L:B:m:L:P,A:192:4,32:0,32 # unified banked L2 data cache config  {<nsets>:<bsize>:<assoc>,<rep>:<wr>:<alloc>:<wr_alloc>,<mshr>:<N>:<merge>,<mq>}
-gpgpu_cache:dl2_texture_only                    0 # L2 cache used for texture only
-gpgpu_n_mem                           12 # number of memory modules (e.g. memory controllers) in gpu
-gpgpu_n_sub_partition_per_mchannel                    2 # number of memory subpartition in each memory module
-gpgpu_n_mem_per_ctrlr                    1 # number of memory chips per memory controller
-gpgpu_memlatency_stat                   14 # track and display latency statistics 0x2 enables MC, 0x4 enables queue logs
-gpgpu_frfcfs_dram_sched_queue_size                   64 # 0 = unlimited (default); # entries per chip
-gpgpu_dram_return_queue_size                  192 # 0 = unlimited (default); # entries per chip
-gpgpu_dram_buswidth                    2 # default = 4 bytes (8 bytes per cycle at DDR)
-gpgpu_dram_burst_length                   16 # Burst length of each DRAM request (default = 4 data bus cycle)
-dram_data_command_freq_ratio                    4 # Frequency ratio between DRAM data bus and command bus (default = 2 times, i.e. DDR)
-gpgpu_dram_timing_opt nbk=16:CCD=4:RRD=12:RCD=24:RAS=55:RP=24:RC=78:CL=24:WL=8:CDLR=10:WR=24:nbkgrp=4:CCDL=6:RTPL=4 # DRAM timing parameters = {nbk:tCCD:tRRD:tRCD:tRAS:tRP:tRC:CL:WL:tCDLR:tWR:nbkgrp:tCCDL:tRTPL}
-gpgpu_l2_rop_latency                  187 # ROP queue latency (default 85)
-dram_latency                         254 # DRAM latency (default 30)
-dram_dual_bus_interface                    0 # dual_bus_interface (default = 0) 
-dram_bnk_indexing_policy                    0 # dram_bnk_indexing_policy (0 = normal indexing, 1 = Xoring with the higher bits) (Default = 0)
-dram_bnkgrp_indexing_policy                    1 # dram_bnkgrp_indexing_policy (0 = take higher bits, 1 = take lower bits) (Default = 0)
-dram_seperate_write_queue_enable                    0 # Seperate_Write_Queue_Enable
-dram_write_queue_size             32:28:16 # Write_Queue_Size
-dram_elimnate_rw_turnaround                    0 # elimnate_rw_turnaround i.e set tWTR and tRTW = 0
-icnt_flit_size                        40 # icnt_flit_size
-gpgpu_mem_addr_mapping dramid@8;00000000.00000000.00000000.00000000.0000RRRR.RRRRRRRR.RBBBCCCC.BCCSSSSS # mapping memory address to dram model {dramid@<start bit>;<memory address map>}
-gpgpu_mem_addr_test                    0 # run sweep test to check address mapping for aliased address
-gpgpu_mem_address_mask                    1 # 0 = old addressing mask, 1 = new addressing mask, 2 = new add. mask + flipped bank sel and chip sel bits
-gpgpu_memory_partition_indexing                    2 # 0 = no indexing, 1 = bitwise xoring, 2 = IPoly, 3 = custom indexing
-accelwattch_xml_file accelwattch_sass_sim.xml # AccelWattch XML file
-power_simulation_enabled                    0 # Turn on power simulator (1=On, 0=Off)
-power_per_cycle_dump                    0 # Dump detailed power output each cycle
-hw_perf_file_name            hw_perf.csv # Hardware Performance Statistics file
-hw_perf_bench_name                       # Kernel Name in Hardware Performance Statistics file
-power_simulation_mode                    0 # Switch performance counter input for power simulation (0=Sim, 1=HW, 2=HW-Sim Hybrid)
-dvfs_enabled                           0 # Turn on DVFS for power model
-aggregate_power_stats                    0 # Accumulate power across all kernels
-accelwattch_hybrid_perfsim_L1_RH                    0 # Get L1 Read Hits for Accelwattch-Hybrid from Accel-Sim
-accelwattch_hybrid_perfsim_L1_RM                    0 # Get L1 Read Misses for Accelwattch-Hybrid from Accel-Sim
-accelwattch_hybrid_perfsim_L1_WH                    0 # Get L1 Write Hits for Accelwattch-Hybrid from Accel-Sim
-accelwattch_hybrid_perfsim_L1_WM                    0 # Get L1 Write Misses for Accelwattch-Hybrid from Accel-Sim
-accelwattch_hybrid_perfsim_L2_RH                    0 # Get L2 Read Hits for Accelwattch-Hybrid from Accel-Sim
-accelwattch_hybrid_perfsim_L2_RM                    0 # Get L2 Read Misses for Accelwattch-Hybrid from Accel-Sim
-accelwattch_hybrid_perfsim_L2_WH                    0 # Get L2 Write Hits for Accelwattch-Hybrid from Accel-Sim
-accelwattch_hybrid_perfsim_L2_WM                    0 # Get L2 Write Misses for Accelwattch-Hybrid from Accel-Sim
-accelwattch_hybrid_perfsim_CC_ACC                    0 # Get Constant Cache Acesses for Accelwattch-Hybrid from Accel-Sim
-accelwattch_hybrid_perfsim_SHARED_ACC                    0 # Get Shared Memory Acesses for Accelwattch-Hybrid from Accel-Sim
-accelwattch_hybrid_perfsim_DRAM_RD                    0 # Get DRAM Reads for Accelwattch-Hybrid from Accel-Sim
-accelwattch_hybrid_perfsim_DRAM_WR                    0 # Get DRAM Writes for Accelwattch-Hybrid from Accel-Sim
-accelwattch_hybrid_perfsim_NOC                    0 # Get Interconnect Acesses for Accelwattch-Hybrid from Accel-Sim
-accelwattch_hybrid_perfsim_PIPE_DUTY                    0 # Get Pipeline Duty Cycle Acesses for Accelwattch-Hybrid from Accel-Sim
-accelwattch_hybrid_perfsim_NUM_SM_IDLE                    0 # Get Number of Idle SMs for Accelwattch-Hybrid from Accel-Sim
-accelwattch_hybrid_perfsim_CYCLES                    0 # Get Executed Cycles for Accelwattch-Hybrid from Accel-Sim
-accelwattch_hybrid_perfsim_VOLTAGE                    0 # Get Chip Voltage for Accelwattch-Hybrid from Accel-Sim
-power_trace_enabled                    0 # produce a file for the power trace (1=On, 0=Off)
-power_trace_zlevel                     6 # Compression level of the power trace output log (0=no comp, 9=highest)
-steady_power_levels_enabled                    0 # produce a file for the steady power levels (1=On, 0=Off)
-steady_state_definition                  8:4 # allowed deviation:number of samples
-gpgpu_max_cycle                        0 # terminates gpu simulation early (0 = no limit)
-gpgpu_max_insn                         0 # terminates gpu simulation early (0 = no limit)
-gpgpu_max_cta                          0 # terminates gpu simulation early (0 = no limit)
-gpgpu_max_completed_cta                    0 # terminates gpu simulation early (0 = no limit)
-gpgpu_runtime_stat                   500 # display runtime statistics such as dram utilization {<freq>:<flag>}
-liveness_message_freq                    1 # Minimum number of seconds between simulation liveness messages (0 = always print)
-gpgpu_compute_capability_major                    8 # Major compute capability version number
-gpgpu_compute_capability_minor                    6 # Minor compute capability version number
-gpgpu_flush_l1_cache                    1 # Flush L1 cache at the end of each kernel call
-gpgpu_flush_l2_cache                    0 # Flush L2 cache at the end of each kernel call
-gpgpu_deadlock_detect                    1 # Stop the simulation at deadlock (1=on (default), 0=off)
-gpgpu_ptx_instruction_classification                    0 # if enabled will classify ptx instruction types per kernel (Max 255 kernels now)
-gpgpu_ptx_sim_mode                     0 # Select between Performance (default) or Functional simulation (1)
-gpgpu_clock_domains 1410:1410:1410:4000.0 # Clock Domain Frequencies in MhZ {<Core Clock>:<ICNT Clock>:<L2 Clock>:<DRAM Clock>}
-gpgpu_max_concurrent_kernel                  128 # maximum kernels that can run concurrently on GPU, set this value according to max resident grids for your compute capability
-gpgpu_cflog_interval                    0 # Interval between each snapshot in control flow logger
-visualizer_enabled                     0 # Turn on visualizer output (1=On, 0=Off)
-visualizer_outputfile                 NULL # Specifies the output log file for visualizer
-visualizer_zlevel                      6 # Compression level of the visualizer output log (0=no comp, 9=highest)
-gpgpu_stack_size_limit                 1024 # GPU thread stack size
-gpgpu_heap_size_limit              8388608 # GPU malloc heap size 
-gpgpu_runtime_sync_depth_limit                    2 # GPU device runtime synchronize depth
-gpgpu_runtime_pending_launch_count_limit                 2048 # GPU device runtime pending launch count
-trace_enabled                          0 # Turn on traces
-trace_components                    none # comma seperated list of traces to enable. Complete list found in trace_streams.tup. Default none
-trace_sampling_core                    0 # The core which is printed using CORE_DPRINTF. Default 0
-trace_sampling_memory_partition                   -1 # The memory partition which is printed using MEMPART_DPRINTF. Default -1 (i.e. all)
-enable_ptx_file_line_stats                    1 # Turn on PTX source line statistic profiling. (1 = On)
-ptx_line_stats_filename gpgpu_inst_stats.txt # Output file for PTX source line statistics.
-gpgpu_kernel_launch_latency                 5000 # Kernel launch latency in cycles. Default: 0
-gpgpu_cdp_enabled                      0 # Turn on CDP
-gpgpu_TB_launch_latency                    0 # thread block launch latency in cycles. Default: 0
-trace               /benchrun/accelsim-sass/cuda6-transpose/sm86_a6000/input-repeat1-dimx64-dimy64/results/traces/kernelslist.g # traces kernel filetraces kernel file directory
-trace_opcode_latency_initiation_int                  4,1 # Opcode latencies and initiation for integers in trace driven mode <latency,initiation>
-trace_opcode_latency_initiation_sp                  4,1 # Opcode latencies and initiation for sp in trace driven mode <latency,initiation>
-trace_opcode_latency_initiation_dp                  4,1 # Opcode latencies and initiation for dp in trace driven mode <latency,initiation>
-trace_opcode_latency_initiation_sfu                  4,1 # Opcode latencies and initiation for sfu in trace driven mode <latency,initiation>
-trace_opcode_latency_initiation_tensor                  4,1 # Opcode latencies and initiation for tensor in trace driven mode <latency,initiation>
-trace_opcode_latency_initiation_spec_op_1                  4,4 # specialized unit config <latency,initiation>
-trace_opcode_latency_initiation_spec_op_2                  4,4 # specialized unit config <latency,initiation>
-trace_opcode_latency_initiation_spec_op_3                  4,4 # specialized unit config <latency,initiation>
-trace_opcode_latency_initiation_spec_op_4                  4,4 # specialized unit config <latency,initiation>
-trace_opcode_latency_initiation_spec_op_5                  4,4 # specialized unit config <latency,initiation>
-trace_opcode_latency_initiation_spec_op_6                  4,4 # specialized unit config <latency,initiation>
-trace_opcode_latency_initiation_spec_op_7                  4,4 # specialized unit config <latency,initiation>
-trace_opcode_latency_initiation_spec_op_8                  4,4 # specialized unit config <latency,initiation>
DRAM Timing Options:
nbk                                    16 # number of banks
CCD                                     4 # column to column delay
RRD                                    12 # minimal delay between activation of rows in different banks
RCD                                    24 # row to column delay
RAS                                    55 # time needed to activate row
RP                                     24 # time needed to precharge (deactivate) row
RC                                     78 # row cycle time
CDLR                                   10 # switching from write to read (changes tWTR)
WR                                     24 # last data-in to row precharge
CL                                     24 # CAS latency
WL                                      8 # Write latency
nbkgrp                                  4 # number of bank groups
CCDL                                    6 # column to column delay between accesses to different bank groups
RTPL                                    4 # read to precharge delay between accesses to different bank groups
Total number of memory sub partition = 24
addr_dec_mask[CHIP]  = 0000000000000000 	high:64 low:0
addr_dec_mask[BK]    = 0000000000007080 	high:15 low:7
addr_dec_mask[ROW]   = 000000000fff8000 	high:28 low:15
addr_dec_mask[COL]   = 0000000000000f7f 	high:12 low:0
addr_dec_mask[BURST] = 000000000000001f 	high:5 low:0
sub_partition_id_mask = 0000000000000080
GPGPU-Sim uArch: clock freqs: 1410000000.000000:1410000000.000000:1410000000.000000:4000000000.000000
GPGPU-Sim uArch: clock periods: 0.00000000070921985816:0.00000000070921985816:0.00000000070921985816:0.00000000025000000000
*** Initializing Memory Statistics ***
GPGPU-Sim uArch: performance model initialization complete.
launching memcpy command : MemcpyHtoD,0x00007f8a05500000,16384
Processing kernel /benchrun/accelsim-sass/cuda6-transpose/sm86_a6000/input-repeat1-dimx64-dimy64/results/traces/kernel-1.traceg
-kernel name = _Z4copyPfS_ii
-kernel id = 1
-grid dim = (4,4,1)
-block dim = (16,16,1)
-shmem = 0
-nregs = 6
-binary version = 61
-cuda stream id = 0
-shmem base_addr = 0x00007f8a32000000
-local mem base_addr = 0x00007f8a30000000
-nvbit version = 1.5.5
-accelsim tracer version = 3
Header info loaded for kernel command : /benchrun/accelsim-sass/cuda6-transpose/sm86_a6000/input-repeat1-dimx64-dimy64/results/traces/kernel-1.traceg
launching kernel name: _Z4copyPfS_ii uid: 1
GPGPU-Sim uArch: Shader 0 bind to kernel 1 '_Z4copyPfS_ii'
GPGPU-Sim uArch: CTA/core = 6, limited by: threads
GPGPU-Sim: Reconfigure L1 cache to 128KB
thread block = 0,0,0
GPGPU-Sim uArch: Shader 1 bind to kernel 1 '_Z4copyPfS_ii'
thread block = 1,0,0
GPGPU-Sim uArch: Shader 2 bind to kernel 1 '_Z4copyPfS_ii'
thread block = 2,0,0
GPGPU-Sim uArch: Shader 3 bind to kernel 1 '_Z4copyPfS_ii'
thread block = 3,0,0
GPGPU-Sim uArch: Shader 4 bind to kernel 1 '_Z4copyPfS_ii'
thread block = 0,1,0
GPGPU-Sim uArch: Shader 5 bind to kernel 1 '_Z4copyPfS_ii'
thread block = 1,1,0
GPGPU-Sim uArch: Shader 6 bind to kernel 1 '_Z4copyPfS_ii'
thread block = 2,1,0
GPGPU-Sim uArch: Shader 7 bind to kernel 1 '_Z4copyPfS_ii'
thread block = 3,1,0
GPGPU-Sim uArch: Shader 8 bind to kernel 1 '_Z4copyPfS_ii'
thread block = 0,2,0
GPGPU-Sim uArch: Shader 9 bind to kernel 1 '_Z4copyPfS_ii'
thread block = 1,2,0
GPGPU-Sim uArch: Shader 10 bind to kernel 1 '_Z4copyPfS_ii'
thread block = 2,2,0
GPGPU-Sim uArch: Shader 11 bind to kernel 1 '_Z4copyPfS_ii'
thread block = 3,2,0
GPGPU-Sim uArch: Shader 12 bind to kernel 1 '_Z4copyPfS_ii'
thread block = 0,3,0
GPGPU-Sim uArch: Shader 13 bind to kernel 1 '_Z4copyPfS_ii'
thread block = 1,3,0
GPGPU-Sim uArch: Shader 14 bind to kernel 1 '_Z4copyPfS_ii'
thread block = 2,3,0
GPGPU-Sim uArch: Shader 15 bind to kernel 1 '_Z4copyPfS_ii'
thread block = 3,3,0
Destroy streams for kernel 1: size 0
kernel_name = _Z4copyPfS_ii 
kernel_launch_uid = 1 
gpu_sim_cycle = 5910
gpu_sim_insn = 77824
gpu_ipc =      13.1682
gpu_tot_sim_cycle = 5910
gpu_tot_sim_insn = 77824
gpu_tot_ipc =      13.1682
gpu_tot_issued_cta = 16
gpu_occupancy = 16.1431% 
gpu_tot_occupancy = 16.1431% 
max_total_param_size = 0
gpu_stall_dramfull = 0
gpu_stall_icnt2sh    = 0
partiton_level_parallism =       0.1733
partiton_level_parallism_total  =       0.1733
partiton_level_parallism_util =       6.6928
partiton_level_parallism_util_total  =       6.6928
L2_BW  =       7.8177 GB/Sec
L2_BW_total  =       7.8177 GB/Sec
gpu_total_sim_rate=19456

========= Core cache stats =========
L1I_cache:
	L1I_total_cache_accesses = 0
	L1I_total_cache_misses = 0
	L1I_total_cache_pending_hits = 0
	L1I_total_cache_reservation_fails = 0
L1D_cache:
	L1D_cache_core[0]: Access = 64, Miss = 64, Miss_rate = 1.000, Pending_hits = 0, Reservation_fails = 2
	L1D_cache_core[1]: Access = 64, Miss = 64, Miss_rate = 1.000, Pending_hits = 0, Reservation_fails = 2
	L1D_cache_core[2]: Access = 64, Miss = 64, Miss_rate = 1.000, Pending_hits = 0, Reservation_fails = 2
	L1D_cache_core[3]: Access = 64, Miss = 64, Miss_rate = 1.000, Pending_hits = 0, Reservation_fails = 2
	L1D_cache_core[4]: Access = 64, Miss = 64, Miss_rate = 1.000, Pending_hits = 0, Reservation_fails = 2
	L1D_cache_core[5]: Access = 64, Miss = 64, Miss_rate = 1.000, Pending_hits = 0, Reservation_fails = 2
	L1D_cache_core[6]: Access = 64, Miss = 64, Miss_rate = 1.000, Pending_hits = 0, Reservation_fails = 2
	L1D_cache_core[7]: Access = 64, Miss = 64, Miss_rate = 1.000, Pending_hits = 0, Reservation_fails = 2
	L1D_cache_core[8]: Access = 64, Miss = 64, Miss_rate = 1.000, Pending_hits = 0, Reservation_fails = 2
	L1D_cache_core[9]: Access = 64, Miss = 64, Miss_rate = 1.000, Pending_hits = 0, Reservation_fails = 2
	L1D_cache_core[10]: Access = 64, Miss = 64, Miss_rate = 1.000, Pending_hits = 0, Reservation_fails = 2
	L1D_cache_core[11]: Access = 64, Miss = 64, Miss_rate = 1.000, Pending_hits = 0, Reservation_fails = 2
	L1D_cache_core[12]: Access = 64, Miss = 64, Miss_rate = 1.000, Pending_hits = 0, Reservation_fails = 2
	L1D_cache_core[13]: Access = 64, Miss = 64, Miss_rate = 1.000, Pending_hits = 0, Reservation_fails = 2
	L1D_cache_core[14]: Access = 64, Miss = 64, Miss_rate = 1.000, Pending_hits = 0, Reservation_fails = 2
	L1D_cache_core[15]: Access = 64, Miss = 64, Miss_rate = 1.000, Pending_hits = 0, Reservation_fails = 2
	L1D_cache_core[16]: Access = 0, Miss = 0, Miss_rate = -nan, Pending_hits = 0, Reservation_fails = 0
	L1D_cache_core[17]: Access = 0, Miss = 0, Miss_rate = -nan, Pending_hits = 0, Reservation_fails = 0
	L1D_cache_core[18]: Access = 0, Miss = 0, Miss_rate = -nan, Pending_hits = 0, Reservation_fails = 0
	L1D_cache_core[19]: Access = 0, Miss = 0, Miss_rate = -nan, Pending_hits = 0, Reservation_fails = 0
	L1D_cache_core[20]: Access = 0, Miss = 0, Miss_rate = -nan, Pending_hits = 0, Reservation_fails = 0
	L1D_cache_core[21]: Access = 0, Miss = 0, Miss_rate = -nan, Pending_hits = 0, Reservation_fails = 0
	L1D_cache_core[22]: Access = 0, Miss = 0, Miss_rate = -nan, Pending_hits = 0, Reservation_fails = 0
	L1D_cache_core[23]: Access = 0, Miss = 0, Miss_rate = -nan, Pending_hits = 0, Reservation_fails = 0
	L1D_cache_core[24]: Access = 0, Miss = 0, Miss_rate = -nan, Pending_hits = 0, Reservation_fails = 0
	L1D_cache_core[25]: Access = 0, Miss = 0, Miss_rate = -nan, Pending_hits = 0, Reservation_fails = 0
	L1D_cache_core[26]: Access = 0, Miss = 0, Miss_rate = -nan, Pending_hits = 0, Reservation_fails = 0
	L1D_cache_core[27]: Access = 0, Miss = 0, Miss_rate = -nan, Pending_hits = 0, Reservation_fails = 0
	L1D_cache_core[28]: Access = 0, Miss = 0, Miss_rate = -nan, Pending_hits = 0, Reservation_fails = 0
	L1D_cache_core[29]: Access = 0, Miss = 0, Miss_rate = -nan, Pending_hits = 0, Reservation_fails = 0
	L1D_cache_core[30]: Access = 0, Miss = 0, Miss_rate = -nan, Pending_hits = 0, Reservation_fails = 0
	L1D_cache_core[31]: Access = 0, Miss = 0, Miss_rate = -nan, Pending_hits = 0, Reservation_fails = 0
	L1D_cache_core[32]: Access = 0, Miss = 0, Miss_rate = -nan, Pending_hits = 0, Reservation_fails = 0
	L1D_cache_core[33]: Access = 0, Miss = 0, Miss_rate = -nan, Pending_hits = 0, Reservation_fails = 0
	L1D_cache_core[34]: Access = 0, Miss = 0, Miss_rate = -nan, Pending_hits = 0, Reservation_fails = 0
	L1D_cache_core[35]: Access = 0, Miss = 0, Miss_rate = -nan, Pending_hits = 0, Reservation_fails = 0
	L1D_cache_core[36]: Access = 0, Miss = 0, Miss_rate = -nan, Pending_hits = 0, Reservation_fails = 0
	L1D_cache_core[37]: Access = 0, Miss = 0, Miss_rate = -nan, Pending_hits = 0, Reservation_fails = 0
	L1D_cache_core[38]: Access = 0, Miss = 0, Miss_rate = -nan, Pending_hits = 0, Reservation_fails = 0
	L1D_cache_core[39]: Access = 0, Miss = 0, Miss_rate = -nan, Pending_hits = 0, Reservation_fails = 0
	L1D_cache_core[40]: Access = 0, Miss = 0, Miss_rate = -nan, Pending_hits = 0, Reservation_fails = 0
	L1D_cache_core[41]: Access = 0, Miss = 0, Miss_rate = -nan, Pending_hits = 0, Reservation_fails = 0
	L1D_cache_core[42]: Access = 0, Miss = 0, Miss_rate = -nan, Pending_hits = 0, Reservation_fails = 0
	L1D_cache_core[43]: Access = 0, Miss = 0, Miss_rate = -nan, Pending_hits = 0, Reservation_fails = 0
	L1D_cache_core[44]: Access = 0, Miss = 0, Miss_rate = -nan, Pending_hits = 0, Reservation_fails = 0
	L1D_cache_core[45]: Access = 0, Miss = 0, Miss_rate = -nan, Pending_hits = 0, Reservation_fails = 0
	L1D_cache_core[46]: Access = 0, Miss = 0, Miss_rate = -nan, Pending_hits = 0, Reservation_fails = 0
	L1D_cache_core[47]: Access = 0, Miss = 0, Miss_rate = -nan, Pending_hits = 0, Reservation_fails = 0
	L1D_cache_core[48]: Access = 0, Miss = 0, Miss_rate = -nan, Pending_hits = 0, Reservation_fails = 0
	L1D_cache_core[49]: Access = 0, Miss = 0, Miss_rate = -nan, Pending_hits = 0, Reservation_fails = 0
	L1D_cache_core[50]: Access = 0, Miss = 0, Miss_rate = -nan, Pending_hits = 0, Reservation_fails = 0
	L1D_cache_core[51]: Access = 0, Miss = 0, Miss_rate = -nan, Pending_hits = 0, Reservation_fails = 0
	L1D_cache_core[52]: Access = 0, Miss = 0, Miss_rate = -nan, Pending_hits = 0, Reservation_fails = 0
	L1D_cache_core[53]: Access = 0, Miss = 0, Miss_rate = -nan, Pending_hits = 0, Reservation_fails = 0
	L1D_cache_core[54]: Access = 0, Miss = 0, Miss_rate = -nan, Pending_hits = 0, Reservation_fails = 0
	L1D_cache_core[55]: Access = 0, Miss = 0, Miss_rate = -nan, Pending_hits = 0, Reservation_fails = 0
	L1D_cache_core[56]: Access = 0, Miss = 0, Miss_rate = -nan, Pending_hits = 0, Reservation_fails = 0
	L1D_cache_core[57]: Access = 0, Miss = 0, Miss_rate = -nan, Pending_hits = 0, Reservation_fails = 0
	L1D_cache_core[58]: Access = 0, Miss = 0, Miss_rate = -nan, Pending_hits = 0, Reservation_fails = 0
	L1D_cache_core[59]: Access = 0, Miss = 0, Miss_rate = -nan, Pending_hits = 0, Reservation_fails = 0
	L1D_cache_core[60]: Access = 0, Miss = 0, Miss_rate = -nan, Pending_hits = 0, Reservation_fails = 0
	L1D_cache_core[61]: Access = 0, Miss = 0, Miss_rate = -nan, Pending_hits = 0, Reservation_fails = 0
	L1D_cache_core[62]: Access = 0, Miss = 0, Miss_rate = -nan, Pending_hits = 0, Reservation_fails = 0
	L1D_cache_core[63]: Access = 0, Miss = 0, Miss_rate = -nan, Pending_hits = 0, Reservation_fails = 0
	L1D_cache_core[64]: Access = 0, Miss = 0, Miss_rate = -nan, Pending_hits = 0, Reservation_fails = 0
	L1D_cache_core[65]: Access = 0, Miss = 0, Miss_rate = -nan, Pending_hits = 0, Reservation_fails = 0
	L1D_cache_core[66]: Access = 0, Miss = 0, Miss_rate = -nan, Pending_hits = 0, Reservation_fails = 0
	L1D_cache_core[67]: Access = 0, Miss = 0, Miss_rate = -nan, Pending_hits = 0, Reservation_fails = 0
	L1D_cache_core[68]: Access = 0, Miss = 0, Miss_rate = -nan, Pending_hits = 0, Reservation_fails = 0
	L1D_cache_core[69]: Access = 0, Miss = 0, Miss_rate = -nan, Pending_hits = 0, Reservation_fails = 0
	L1D_cache_core[70]: Access = 0, Miss = 0, Miss_rate = -nan, Pending_hits = 0, Reservation_fails = 0
	L1D_cache_core[71]: Access = 0, Miss = 0, Miss_rate = -nan, Pending_hits = 0, Reservation_fails = 0
	L1D_cache_core[72]: Access = 0, Miss = 0, Miss_rate = -nan, Pending_hits = 0, Reservation_fails = 0
	L1D_cache_core[73]: Access = 0, Miss = 0, Miss_rate = -nan, Pending_hits = 0, Reservation_fails = 0
	L1D_cache_core[74]: Access = 0, Miss = 0, Miss_rate = -nan, Pending_hits = 0, Reservation_fails = 0
	L1D_cache_core[75]: Access = 0, Miss = 0, Miss_rate = -nan, Pending_hits = 0, Reservation_fails = 0
	L1D_cache_core[76]: Access = 0, Miss = 0, Miss_rate = -nan, Pending_hits = 0, Reservation_fails = 0
	L1D_cache_core[77]: Access = 0, Miss = 0, Miss_rate = -nan, Pending_hits = 0, Reservation_fails = 0
	L1D_cache_core[78]: Access = 0, Miss = 0, Miss_rate = -nan, Pending_hits = 0, Reservation_fails = 0
	L1D_cache_core[79]: Access = 0, Miss = 0, Miss_rate = -nan, Pending_hits = 0, Reservation_fails = 0
	L1D_cache_core[80]: Access = 0, Miss = 0, Miss_rate = -nan, Pending_hits = 0, Reservation_fails = 0
	L1D_cache_core[81]: Access = 0, Miss = 0, Miss_rate = -nan, Pending_hits = 0, Reservation_fails = 0
	L1D_cache_core[82]: Access = 0, Miss = 0, Miss_rate = -nan, Pending_hits = 0, Reservation_fails = 0
	L1D_cache_core[83]: Access = 0, Miss = 0, Miss_rate = -nan, Pending_hits = 0, Reservation_fails = 0
	L1D_total_cache_accesses = 1024
	L1D_total_cache_misses = 1024
	L1D_total_cache_miss_rate = 1.0000
	L1D_total_cache_pending_hits = 0
	L1D_total_cache_reservation_fails = 32
	L1D_cache_data_port_util = 0.000
	L1D_cache_fill_port_util = 0.036
L1C_cache:
	L1C_total_cache_accesses = 0
	L1C_total_cache_misses = 0
	L1C_total_cache_pending_hits = 0
	L1C_total_cache_reservation_fails = 0
L1T_cache:
	L1T_total_cache_accesses = 0
	L1T_total_cache_misses = 0
	L1T_total_cache_pending_hits = 0
	L1T_total_cache_reservation_fails = 0

Total_core_cache_stats:
	Total_core_cache_stats_breakdown[GLOBAL_ACC_R][HIT] = 0
	Total_core_cache_stats_breakdown[GLOBAL_ACC_R][HIT_RESERVED] = 0
	Total_core_cache_stats_breakdown[GLOBAL_ACC_R][MISS] = 256
	Total_core_cache_stats_breakdown[GLOBAL_ACC_R][RESERVATION_FAIL] = 32
	Total_core_cache_stats_breakdown[GLOBAL_ACC_R][SECTOR_MISS] = 256
	Total_core_cache_stats_breakdown[GLOBAL_ACC_R][MSHR_HIT] = 0
	Total_core_cache_stats_breakdown[LOCAL_ACC_R][HIT] = 0
	Total_core_cache_stats_breakdown[LOCAL_ACC_R][HIT_RESERVED] = 0
	Total_core_cache_stats_breakdown[LOCAL_ACC_R][MISS] = 0
	Total_core_cache_stats_breakdown[LOCAL_ACC_R][RESERVATION_FAIL] = 0
	Total_core_cache_stats_breakdown[LOCAL_ACC_R][SECTOR_MISS] = 0
	Total_core_cache_stats_breakdown[LOCAL_ACC_R][MSHR_HIT] = 0
	Total_core_cache_stats_breakdown[CONST_ACC_R][HIT] = 0
	Total_core_cache_stats_breakdown[CONST_ACC_R][HIT_RESERVED] = 0
	Total_core_cache_stats_breakdown[CONST_ACC_R][MISS] = 0
	Total_core_cache_stats_breakdown[CONST_ACC_R][RESERVATION_FAIL] = 0
	Total_core_cache_stats_breakdown[CONST_ACC_R][SECTOR_MISS] = 0
	Total_core_cache_stats_breakdown[CONST_ACC_R][MSHR_HIT] = 0
	Total_core_cache_stats_breakdown[TEXTURE_ACC_R][HIT] = 0
	Total_core_cache_stats_breakdown[TEXTURE_ACC_R][HIT_RESERVED] = 0
	Total_core_cache_stats_breakdown[TEXTURE_ACC_R][MISS] = 0
	Total_core_cache_stats_breakdown[TEXTURE_ACC_R][RESERVATION_FAIL] = 0
	Total_core_cache_stats_breakdown[TEXTURE_ACC_R][SECTOR_MISS] = 0
	Total_core_cache_stats_breakdown[TEXTURE_ACC_R][MSHR_HIT] = 0
	Total_core_cache_stats_breakdown[GLOBAL_ACC_W][HIT] = 0
	Total_core_cache_stats_breakdown[GLOBAL_ACC_W][HIT_RESERVED] = 0
	Total_core_cache_stats_breakdown[GLOBAL_ACC_W][MISS] = 256
	Total_core_cache_stats_breakdown[GLOBAL_ACC_W][RESERVATION_FAIL] = 0
	Total_core_cache_stats_breakdown[GLOBAL_ACC_W][SECTOR_MISS] = 256
	Total_core_cache_stats_breakdown[GLOBAL_ACC_W][MSHR_HIT] = 0
	Total_core_cache_stats_breakdown[LOCAL_ACC_W][HIT] = 0
	Total_core_cache_stats_breakdown[LOCAL_ACC_W][HIT_RESERVED] = 0
	Total_core_cache_stats_breakdown[LOCAL_ACC_W][MISS] = 0
	Total_core_cache_stats_breakdown[LOCAL_ACC_W][RESERVATION_FAIL] = 0
	Total_core_cache_stats_breakdown[LOCAL_ACC_W][SECTOR_MISS] = 0
	Total_core_cache_stats_breakdown[LOCAL_ACC_W][MSHR_HIT] = 0
	Total_core_cache_stats_breakdown[L1_WRBK_ACC][HIT] = 0
	Total_core_cache_stats_breakdown[L1_WRBK_ACC][HIT_RESERVED] = 0
	Total_core_cache_stats_breakdown[L1_WRBK_ACC][MISS] = 0
	Total_core_cache_stats_breakdown[L1_WRBK_ACC][RESERVATION_FAIL] = 0
	Total_core_cache_stats_breakdown[L1_WRBK_ACC][SECTOR_MISS] = 0
	Total_core_cache_stats_breakdown[L1_WRBK_ACC][MSHR_HIT] = 0
	Total_core_cache_stats_breakdown[L2_WRBK_ACC][HIT] = 0
	Total_core_cache_stats_breakdown[L2_WRBK_ACC][HIT_RESERVED] = 0
	Total_core_cache_stats_breakdown[L2_WRBK_ACC][MISS] = 0
	Total_core_cache_stats_breakdown[L2_WRBK_ACC][RESERVATION_FAIL] = 0
	Total_core_cache_stats_breakdown[L2_WRBK_ACC][SECTOR_MISS] = 0
	Total_core_cache_stats_breakdown[L2_WRBK_ACC][MSHR_HIT] = 0
	Total_core_cache_stats_breakdown[INST_ACC_R][HIT] = 0
	Total_core_cache_stats_breakdown[INST_ACC_R][HIT_RESERVED] = 0
	Total_core_cache_stats_breakdown[INST_ACC_R][MISS] = 0
	Total_core_cache_stats_breakdown[INST_ACC_R][RESERVATION_FAIL] = 0
	Total_core_cache_stats_breakdown[INST_ACC_R][SECTOR_MISS] = 0
	Total_core_cache_stats_breakdown[INST_ACC_R][MSHR_HIT] = 0
	Total_core_cache_stats_breakdown[L1_WR_ALLOC_R][HIT] = 0
	Total_core_cache_stats_breakdown[L1_WR_ALLOC_R][HIT_RESERVED] = 0
	Total_core_cache_stats_breakdown[L1_WR_ALLOC_R][MISS] = 0
	Total_core_cache_stats_breakdown[L1_WR_ALLOC_R][RESERVATION_FAIL] = 0
	Total_core_cache_stats_breakdown[L1_WR_ALLOC_R][SECTOR_MISS] = 0
	Total_core_cache_stats_breakdown[L1_WR_ALLOC_R][MSHR_HIT] = 0
	Total_core_cache_stats_breakdown[L2_WR_ALLOC_R][HIT] = 0
	Total_core_cache_stats_breakdown[L2_WR_ALLOC_R][HIT_RESERVED] = 0
	Total_core_cache_stats_breakdown[L2_WR_ALLOC_R][MISS] = 0
	Total_core_cache_stats_breakdown[L2_WR_ALLOC_R][RESERVATION_FAIL] = 0
	Total_core_cache_stats_breakdown[L2_WR_ALLOC_R][SECTOR_MISS] = 0
	Total_core_cache_stats_breakdown[L2_WR_ALLOC_R][MSHR_HIT] = 0
	Total_core_cache_stats_breakdown[GLOBAL_ACC_R][TOTAL_ACCESS] = 512
	Total_core_cache_stats_breakdown[GLOBAL_ACC_W][TOTAL_ACCESS] = 512

Total_core_cache_fail_stats:
	Total_core_cache_fail_stats_breakdown[GLOBAL_ACC_R][MISS_QUEUE_FULL] = 32
ctas_completed 16, Shader 0 warp_id issue ditsribution:
warp_id:
0, 1, 2, 3, 4, 5, 6, 7, 
distro:
19, 19, 19, 19, 19, 19, 19, 19, 
gpgpu_n_tot_thrd_icount = 77824
gpgpu_n_tot_w_icount = 2432
gpgpu_n_stall_shd_mem = 256
gpgpu_n_mem_read_local = 0
gpgpu_n_mem_write_local = 0
gpgpu_n_mem_read_global = 512
gpgpu_n_mem_write_global = 512
gpgpu_n_mem_texture = 0
gpgpu_n_mem_const = 0
gpgpu_n_load_insn  = 4096
gpgpu_n_store_insn = 4096
gpgpu_n_shmem_insn = 0
gpgpu_n_sstarr_insn = 0
gpgpu_n_tex_insn = 0
gpgpu_n_const_mem_insn = 0
gpgpu_n_param_mem_insn = 0
gpgpu_n_shmem_bkconflict = 0
gpgpu_n_cache_bkconflict = 0
gpgpu_n_intrawarp_mshr_merge = 0
gpgpu_n_cmem_portconflict = 0
gpgpu_stall_shd_mem[c_mem][resource_stall] = 0
gpgpu_stall_shd_mem[s_mem][bk_conf] = 0
gpgpu_stall_shd_mem[gl_mem][resource_stall] = 256
gpgpu_stall_shd_mem[gl_mem][coal_stall] = 0
gpgpu_stall_shd_mem[gl_mem][data_port_stall] = 0
gpu_reg_bank_conflict_stalls = 0
Warp Occupancy Distribution:
Stall:0	W0_Idle:16712	W0_Scoreboard:37964	W1:0	W2:0	W3:0	W4:0	W5:0	W6:0	W7:0	W8:0	W9:0	W10:0	W11:0	W12:0	W13:0	W14:0	W15:0	W16:0	W17:0	W18:0	W19:0	W20:0	W21:0	W22:0	W23:0	W24:0	W25:0	W26:0	W27:0	W28:0	W29:0	W30:0	W31:0	W32:2432
single_issue_nums: WS0:608	WS1:608	WS2:608	WS3:608	
dual_issue_nums: WS0:0	WS1:0	WS2:0	WS3:0	
traffic_breakdown_coretomem[GLOBAL_ACC_R] = 4096 {8:512,}
traffic_breakdown_coretomem[GLOBAL_ACC_W] = 20480 {40:512,}
traffic_breakdown_memtocore[GLOBAL_ACC_R] = 20480 {40:512,}
traffic_breakdown_memtocore[GLOBAL_ACC_W] = 4096 {8:512,}
maxmflatency = 582 
max_icnt2mem_latency = 89 
maxmrqlatency = 39 
max_icnt2sh_latency = 9 
mrq_lat_table:48 	16 	44 	169 	195 	40 	0 	0 	0 	0 	0 	0 	0 	0 	0 	0 	0 	0 	0 	0 	0 	0 	0 	0 	0 	0 	0 	0 	0 	0 	0 	0 	
dq_lat_table:0 	0 	0 	0 	0 	0 	0 	0 	0 	0 	0 	0 	0 	0 	0 	0 	0 	0 	0 	0 	0 	0 	0 	0 	0 	0 	0 	0 	0 	0 	0 	0 	
mf_lat_table:0 	0 	0 	0 	0 	0 	0 	512 	19 	493 	0 	0 	0 	0 	0 	0 	0 	0 	0 	0 	0 	0 	0 	0 	0 	0 	0 	0 	0 	0 	0 	0 	
icnt2mem_lat_table:0 	0 	0 	0 	0 	792 	232 	0 	0 	0 	0 	0 	0 	0 	0 	0 	0 	0 	0 	0 	0 	0 	0 	0 	
icnt2sh_lat_table:0 	876 	128 	20 	0 	0 	0 	0 	0 	0 	0 	0 	0 	0 	0 	0 	0 	0 	0 	0 	0 	0 	0 	0 	
mf_lat_pw_table:0 	0 	0 	0 	0 	0 	0 	0 	0 	0 	0 	0 	0 	0 	0 	0 	0 	0 	0 	0 	0 	0 	0 	0 	0 	0 	0 	0 	0 	0 	0 	0 	
maximum concurrent accesses to same row:
dram[0]:         0         0         0         0         0         0         0         0         0         0         0         0         0         0         0         0 
dram[1]:         0         0         0         0         0         0         0         0         0         0         0         0         0         0         0         0 
dram[2]:         0         0         0         0         0         0         0         0         0         0         0         0         0         0         0         0 
dram[3]:         0         0         0         0         0         0         0         0         0         0         0         0         0         0         0         0 
dram[4]:         0         0         0         0         0         0         0         0         0         0         0         0         0         0         0         0 
dram[5]:         0         0         0         0         0         0         0         0         0         0         0         0         0         0         0         0 
dram[6]:         0         0         0         0         0         0         0         0         0         0         0         0         0         0         0         0 
dram[7]:         0         0         0         0         0         0         0         0         0         0         0         0         0         0         0         0 
dram[8]:         0         0         0         0         0         0         0         0         0         0         0         0         0         0         0         0 
dram[9]:         0         0         0         0         0         0         0         0         0         0         0         0         0         0         0         0 
dram[10]:         0         0         0         0         0         0         0         0         0         0         0         0         0         0         0         0 
dram[11]:         0         0         0         0         0         0         0         0         0         0         0         0         0         0         0         0 
maximum service time to same row:
dram[0]:         0         0         0         0      5556      5556         0         0         0         0         0         0         0         0         0         0 
dram[1]:         0         0         0         0      5553      5553         0         0         0         0         0         0         0         0         0         0 
dram[2]:         0         0         0         0      5562      5561         0         0         0         0         0         0         0         0         0         0 
dram[3]:         0         0         0         0      5558      5558         0         0         0         0         0         0         0         0         0         0 
dram[4]:         0         0         0         0      5553      5553         0         0         0         0         0         0         0         0         0         0 
dram[5]:         0         0         0         0      5555      5556         0         0         0         0         0         0         0         0         0         0 
dram[6]:         0         0         0         0      5556      5556         0         0         0         0         0         0         0         0         0         0 
dram[7]:         0         0         0         0      5553      5553         0         0         0         0         0         0         0         0         0         0 
dram[8]:         0         0         0         0      5558      5558         0         0         0         0         0         0         0         0         0         0 
dram[9]:         0         0         0         0      5560      5560         0         0         0         0         0         0         0         0         0         0 
dram[10]:         0         0         0         0      5553      5553         0         0         0         0         0         0         0         0         0         0 
dram[11]:         0         0         0         0      5556      5555         0         0         0         0         0         0         0         0         0         0 
average row accesses per activate:
dram[0]:      -nan      -nan      -nan      -nan 28.000000 28.000000      -nan      -nan      -nan      -nan      -nan      -nan      -nan      -nan      -nan      -nan 
dram[1]:      -nan      -nan      -nan      -nan 28.000000 28.000000      -nan      -nan      -nan      -nan      -nan      -nan      -nan      -nan      -nan      -nan 
dram[2]:      -nan      -nan      -nan      -nan 28.000000 28.000000      -nan      -nan      -nan      -nan      -nan      -nan      -nan      -nan      -nan      -nan 
dram[3]:      -nan      -nan      -nan      -nan 28.000000 28.000000      -nan      -nan      -nan      -nan      -nan      -nan      -nan      -nan      -nan      -nan 
dram[4]:      -nan      -nan      -nan      -nan 24.000000 24.000000      -nan      -nan      -nan      -nan      -nan      -nan      -nan      -nan      -nan      -nan 
dram[5]:      -nan      -nan      -nan      -nan 24.000000 24.000000      -nan      -nan      -nan      -nan      -nan      -nan      -nan      -nan      -nan      -nan 
dram[6]:      -nan      -nan      -nan      -nan 24.000000 24.000000      -nan      -nan      -nan      -nan      -nan      -nan      -nan      -nan      -nan      -nan 
dram[7]:      -nan      -nan      -nan      -nan 24.000000 24.000000      -nan      -nan      -nan      -nan      -nan      -nan      -nan      -nan      -nan      -nan 
dram[8]:      -nan      -nan      -nan      -nan 12.000000 12.000000      -nan      -nan      -nan      -nan      -nan      -nan      -nan      -nan      -nan      -nan 
dram[9]:      -nan      -nan      -nan      -nan 12.000000 12.000000      -nan      -nan      -nan      -nan      -nan      -nan      -nan      -nan      -nan      -nan 
dram[10]:      -nan      -nan      -nan      -nan 12.000000 12.000000      -nan      -nan      -nan      -nan      -nan      -nan      -nan      -nan      -nan      -nan 
dram[11]:      -nan      -nan      -nan      -nan 12.000000 12.000000      -nan      -nan      -nan      -nan      -nan      -nan      -nan      -nan      -nan      -nan 
average row locality = 512/24 = 21.333334
number of total memory accesses made:
dram[0]:         0         0         0         0         0         0         0         0         0         0         0         0         0         0         0         0 
dram[1]:         0         0         0         0         0         0         0         0         0         0         0         0         0         0         0         0 
dram[2]:         0         0         0         0         0         0         0         0         0         0         0         0         0         0         0         0 
dram[3]:         0         0         0         0         0         0         0         0         0         0         0         0         0         0         0         0 
dram[4]:         0         0         0         0         0         0         0         0         0         0         0         0         0         0         0         0 
dram[5]:         0         0         0         0         0         0         0         0         0         0         0         0         0         0         0         0 
dram[6]:         0         0         0         0         0         0         0         0         0         0         0         0         0         0         0         0 
dram[7]:         0         0         0         0         0         0         0         0         0         0         0         0         0         0         0         0 
dram[8]:         0         0         0         0         0         0         0         0         0         0         0         0         0         0         0         0 
dram[9]:         0         0         0         0         0         0         0         0         0         0         0         0         0         0         0         0 
dram[10]:         0         0         0         0         0         0         0         0         0         0         0         0         0         0         0         0 
dram[11]:         0         0         0         0         0         0         0         0         0         0         0         0         0         0         0         0 
total accesses: 0
min_bank_accesses = 0!
min_chip_accesses = 0!
number of total read accesses:
dram[0]:         0         0         0         0        28        28         0         0         0         0         0         0         0         0         0         0 
dram[1]:         0         0         0         0        28        28         0         0         0         0         0         0         0         0         0         0 
dram[2]:         0         0         0         0        28        28         0         0         0         0         0         0         0         0         0         0 
dram[3]:         0         0         0         0        28        28         0         0         0         0         0         0         0         0         0         0 
dram[4]:         0         0         0         0        24        24         0         0         0         0         0         0         0         0         0         0 
dram[5]:         0         0         0         0        24        24         0         0         0         0         0         0         0         0         0         0 
dram[6]:         0         0         0         0        24        24         0         0         0         0         0         0         0         0         0         0 
dram[7]:         0         0         0         0        24        24         0         0         0         0         0         0         0         0         0         0 
dram[8]:         0         0         0         0        12        12         0         0         0         0         0         0         0         0         0         0 
dram[9]:         0         0         0         0        12        12         0         0         0         0         0         0         0         0         0         0 
dram[10]:         0         0         0         0        12        12         0         0         0         0         0         0         0         0         0         0 
dram[11]:         0         0         0         0        12        12         0         0         0         0         0         0         0         0         0         0 
total dram reads = 512
min_bank_accesses = 0!
chip skew: 56/24 = 2.33
number of total write accesses:
dram[0]:         0         0         0         0         0         0         0         0         0         0         0         0         0         0         0         0 
dram[1]:         0         0         0         0         0         0         0         0         0         0         0         0         0         0         0         0 
dram[2]:         0         0         0         0         0         0         0         0         0         0         0         0         0         0         0         0 
dram[3]:         0         0         0         0         0         0         0         0         0         0         0         0         0         0         0         0 
dram[4]:         0         0         0         0         0         0         0         0         0         0         0         0         0         0         0         0 
dram[5]:         0         0         0         0         0         0         0         0         0         0         0         0         0         0         0         0 
dram[6]:         0         0         0         0         0         0         0         0         0         0         0         0         0         0         0         0 
dram[7]:         0         0         0         0         0         0         0         0         0         0         0         0         0         0         0         0 
dram[8]:         0         0         0         0         0         0         0         0         0         0         0         0         0         0         0         0 
dram[9]:         0         0         0         0         0         0         0         0         0         0         0         0         0         0         0         0 
dram[10]:         0         0         0         0         0         0         0         0         0         0         0         0         0         0         0         0 
dram[11]:         0         0         0         0         0         0         0         0         0         0         0         0         0         0         0         0 
total dram writes = 0
min_bank_accesses = 0!
min_chip_accesses = 0!
average mf latency per bank:
dram[0]:     none      none      none      none         543       539    none      none      none      none      none      none      none      none      none      none  
dram[1]:     none      none      none      none         541       536    none      none      none      none      none      none      none      none      none      none  
dram[2]:     none      none      none      none         551       546    none      none      none      none      none      none      none      none      none      none  
dram[3]:     none      none      none      none         547       543    none      none      none      none      none      none      none      none      none      none  
dram[4]:     none      none      none      none         533       540    none      none      none      none      none      none      none      none      none      none  
dram[5]:     none      none      none      none         535       542    none      none      none      none      none      none      none      none      none      none  
dram[6]:     none      none      none      none         539       535    none      none      none      none      none      none      none      none      none      none  
dram[7]:     none      none      none      none         536       532    none      none      none      none      none      none      none      none      none      none  
dram[8]:     none      none      none      none         527       524    none      none      none      none      none      none      none      none      none      none  
dram[9]:     none      none      none      none         530       525    none      none      none      none      none      none      none      none      none      none  
dram[10]:     none      none      none      none         523       521    none      none      none      none      none      none      none      none      none      none  
dram[11]:     none      none      none      none         524       523    none      none      none      none      none      none      none      none      none      none  
maximum mf latency per bank:
dram[0]:          0         0         0         0       575       571       242       252         0         0         0         0         0         0         0         0
dram[1]:          0         0         0         0       573       569       242       247         0         0         0         0         0         0         0         0
dram[2]:          0         0         0         0       582       579       245       249         0         0         0         0         0         0         0         0
dram[3]:          0         0         0         0       580       576       246       244         0         0         0         0         0         0         0         0
dram[4]:          0         0         0         0       558       563       245       248         0         0         0         0         0         0         0         0
dram[5]:          0         0         0         0       561       567       244       245         0         0         0         0         0         0         0         0
dram[6]:          0         0         0         0       565       561       237       240         0         0         0         0         0         0         0         0
dram[7]:          0         0         0         0       561       557       240       240         0         0         0         0         0         0         0         0
dram[8]:          0         0         0         0       539       539       241       244         0         0         0         0         0         0         0         0
dram[9]:          0         0         0         0       545       541       241       242         0         0         0         0         0         0         0         0
dram[10]:          0         0         0         0       539       534       240       245         0         0         0         0         0         0         0         0
dram[11]:          0         0         0         0       541       540       240       245         0         0         0         0         0         0         0         0
Memory Partition 0: 
Cache L2_bank_000:
MSHR contents

Cache L2_bank_001:
MSHR contents

In Dram Latency Queue (total = 0): 
DRAM[0]: 16 bks, busW=2 BL=16 CL=24, tRRD=12 tCCD=4, tRCD=24 tRAS=55 tRP=24 tRC=78
n_cmd=16764 n_nop=16706 n_act=2 n_pre=0 n_ref_event=0 n_req=56 n_rd=56 n_rd_L2_A=0 n_write=0 n_wr_bk=0 bw_util=0.01336
n_activity=272 dram_eff=0.8235
bk0: 0a 16764i bk1: 0a 16765i bk2: 0a 16765i bk3: 0a 16766i bk4: 28a 16543i bk5: 28a 16560i bk6: 0a 16762i bk7: 0a 16763i bk8: 0a 16763i bk9: 0a 16763i bk10: 0a 16763i bk11: 0a 16764i bk12: 0a 16764i bk13: 0a 16764i bk14: 0a 16764i bk15: 0a 16764i 

------------------------------------------------------------------------

Row_Buffer_Locality = 0.964286
Row_Buffer_Locality_read = 0.964286
Row_Buffer_Locality_write = -nan
Bank_Level_Parallism = 1.920319
Bank_Level_Parallism_Col = 1.876000
Bank_Level_Parallism_Ready = 1.017857
write_to_read_ratio_blp_rw_average = 0.000000
GrpLevelPara = 1.876000 

BW Util details:
bwutil = 0.013362 
total_CMD = 16764 
util_bw = 224 
Wasted_Col = 30 
Wasted_Row = 0 
Idle = 16510 

BW Util Bottlenecks: 
RCDc_limit = 40 
RCDWRc_limit = 0 
WTRc_limit = 0 
RTWc_limit = 0 
CCDLc_limit = 6 
rwq = 0 
CCDLc_limit_alone = 6 
WTRc_limit_alone = 0 
RTWc_limit_alone = 0 

Commands details: 
total_CMD = 16764 
n_nop = 16706 
Read = 56 
Write = 0 
L2_Alloc = 0 
L2_WB = 0 
n_act = 2 
n_pre = 0 
n_ref = 0 
n_req = 56 
total_req = 56 

Dual Bus Interface Util: 
issued_total_row = 2 
issued_total_col = 56 
Row_Bus_Util =  0.000119 
CoL_Bus_Util = 0.003340 
Either_Row_CoL_Bus_Util = 0.003460 
Issued_on_Two_Bus_Simul_Util = 0.000000 
issued_two_Eff = 0.000000 
queue_avg = 0.111071 


dram_util_bins: 0 0 0 0 0 0 0 0 0 0
dram_eff_bins: 0 0 0 0 0 0 0 0 0 0
mrqq: max=18 avg=0.111071
Memory Partition 1: 
Cache L2_bank_002:
MSHR contents

Cache L2_bank_003:
MSHR contents

In Dram Latency Queue (total = 0): 
DRAM[1]: 16 bks, busW=2 BL=16 CL=24, tRRD=12 tCCD=4, tRCD=24 tRAS=55 tRP=24 tRC=78
n_cmd=16764 n_nop=16706 n_act=2 n_pre=0 n_ref_event=0 n_req=56 n_rd=56 n_rd_L2_A=0 n_write=0 n_wr_bk=0 bw_util=0.01336
n_activity=272 dram_eff=0.8235
bk0: 0a 16764i bk1: 0a 16765i bk2: 0a 16765i bk3: 0a 16766i bk4: 28a 16543i bk5: 28a 16565i bk6: 0a 16762i bk7: 0a 16763i bk8: 0a 16763i bk9: 0a 16763i bk10: 0a 16763i bk11: 0a 16764i bk12: 0a 16764i bk13: 0a 16764i bk14: 0a 16764i bk15: 0a 16764i 

------------------------------------------------------------------------

Row_Buffer_Locality = 0.964286
Row_Buffer_Locality_read = 0.964286
Row_Buffer_Locality_write = -nan
Bank_Level_Parallism = 1.900398
Bank_Level_Parallism_Col = 1.856000
Bank_Level_Parallism_Ready = 1.017857
write_to_read_ratio_blp_rw_average = 0.000000
GrpLevelPara = 1.856000 

BW Util details:
bwutil = 0.013362 
total_CMD = 16764 
util_bw = 224 
Wasted_Col = 30 
Wasted_Row = 0 
Idle = 16510 

BW Util Bottlenecks: 
RCDc_limit = 40 
RCDWRc_limit = 0 
WTRc_limit = 0 
RTWc_limit = 0 
CCDLc_limit = 6 
rwq = 0 
CCDLc_limit_alone = 6 
WTRc_limit_alone = 0 
RTWc_limit_alone = 0 

Commands details: 
total_CMD = 16764 
n_nop = 16706 
Read = 56 
Write = 0 
L2_Alloc = 0 
L2_WB = 0 
n_act = 2 
n_pre = 0 
n_ref = 0 
n_req = 56 
total_req = 56 

Dual Bus Interface Util: 
issued_total_row = 2 
issued_total_col = 56 
Row_Bus_Util =  0.000119 
CoL_Bus_Util = 0.003340 
Either_Row_CoL_Bus_Util = 0.003460 
Issued_on_Two_Bus_Simul_Util = 0.000000 
issued_two_Eff = 0.000000 
queue_avg = 0.099439 


dram_util_bins: 0 0 0 0 0 0 0 0 0 0
dram_eff_bins: 0 0 0 0 0 0 0 0 0 0
mrqq: max=17 avg=0.0994393
Memory Partition 2: 
Cache L2_bank_004:
MSHR contents

Cache L2_bank_005:
MSHR contents

In Dram Latency Queue (total = 0): 
DRAM[2]: 16 bks, busW=2 BL=16 CL=24, tRRD=12 tCCD=4, tRCD=24 tRAS=55 tRP=24 tRC=78
n_cmd=16764 n_nop=16706 n_act=2 n_pre=0 n_ref_event=0 n_req=56 n_rd=56 n_rd_L2_A=0 n_write=0 n_wr_bk=0 bw_util=0.01336
n_activity=272 dram_eff=0.8235
bk0: 0a 16764i bk1: 0a 16765i bk2: 0a 16765i bk3: 0a 16766i bk4: 28a 16543i bk5: 28a 16551i bk6: 0a 16762i bk7: 0a 16763i bk8: 0a 16763i bk9: 0a 16763i bk10: 0a 16763i bk11: 0a 16764i bk12: 0a 16764i bk13: 0a 16764i bk14: 0a 16764i bk15: 0a 16764i 

------------------------------------------------------------------------

Row_Buffer_Locality = 0.964286
Row_Buffer_Locality_read = 0.964286
Row_Buffer_Locality_write = -nan
Bank_Level_Parallism = 1.956175
Bank_Level_Parallism_Col = 1.912000
Bank_Level_Parallism_Ready = 1.017857
write_to_read_ratio_blp_rw_average = 0.000000
GrpLevelPara = 1.912000 

BW Util details:
bwutil = 0.013362 
total_CMD = 16764 
util_bw = 224 
Wasted_Col = 30 
Wasted_Row = 0 
Idle = 16510 

BW Util Bottlenecks: 
RCDc_limit = 40 
RCDWRc_limit = 0 
WTRc_limit = 0 
RTWc_limit = 0 
CCDLc_limit = 6 
rwq = 0 
CCDLc_limit_alone = 6 
WTRc_limit_alone = 0 
RTWc_limit_alone = 0 

Commands details: 
total_CMD = 16764 
n_nop = 16706 
Read = 56 
Write = 0 
L2_Alloc = 0 
L2_WB = 0 
n_act = 2 
n_pre = 0 
n_ref = 0 
n_req = 56 
total_req = 56 

Dual Bus Interface Util: 
issued_total_row = 2 
issued_total_col = 56 
Row_Bus_Util =  0.000119 
CoL_Bus_Util = 0.003340 
Either_Row_CoL_Bus_Util = 0.003460 
Issued_on_Two_Bus_Simul_Util = 0.000000 
issued_two_Eff = 0.000000 
queue_avg = 0.225424 


dram_util_bins: 0 0 0 0 0 0 0 0 0 0
dram_eff_bins: 0 0 0 0 0 0 0 0 0 0
mrqq: max=27 avg=0.225424
Memory Partition 3: 
Cache L2_bank_006:
MSHR contents

Cache L2_bank_007:
MSHR contents

In Dram Latency Queue (total = 0): 
DRAM[3]: 16 bks, busW=2 BL=16 CL=24, tRRD=12 tCCD=4, tRCD=24 tRAS=55 tRP=24 tRC=78
n_cmd=16764 n_nop=16706 n_act=2 n_pre=0 n_ref_event=0 n_req=56 n_rd=56 n_rd_L2_A=0 n_write=0 n_wr_bk=0 bw_util=0.01336
n_activity=272 dram_eff=0.8235
bk0: 0a 16764i bk1: 0a 16765i bk2: 0a 16765i bk3: 0a 16766i bk4: 28a 16543i bk5: 28a 16551i bk6: 0a 16762i bk7: 0a 16763i bk8: 0a 16763i bk9: 0a 16763i bk10: 0a 16763i bk11: 0a 16764i bk12: 0a 16764i bk13: 0a 16764i bk14: 0a 16764i bk15: 0a 16764i 

------------------------------------------------------------------------

Row_Buffer_Locality = 0.964286
Row_Buffer_Locality_read = 0.964286
Row_Buffer_Locality_write = -nan
Bank_Level_Parallism = 1.956175
Bank_Level_Parallism_Col = 1.912000
Bank_Level_Parallism_Ready = 1.017857
write_to_read_ratio_blp_rw_average = 0.000000
GrpLevelPara = 1.912000 

BW Util details:
bwutil = 0.013362 
total_CMD = 16764 
util_bw = 224 
Wasted_Col = 30 
Wasted_Row = 0 
Idle = 16510 

BW Util Bottlenecks: 
RCDc_limit = 40 
RCDWRc_limit = 0 
WTRc_limit = 0 
RTWc_limit = 0 
CCDLc_limit = 6 
rwq = 0 
CCDLc_limit_alone = 6 
WTRc_limit_alone = 0 
RTWc_limit_alone = 0 

Commands details: 
total_CMD = 16764 
n_nop = 16706 
Read = 56 
Write = 0 
L2_Alloc = 0 
L2_WB = 0 
n_act = 2 
n_pre = 0 
n_ref = 0 
n_req = 56 
total_req = 56 

Dual Bus Interface Util: 
issued_total_row = 2 
issued_total_col = 56 
Row_Bus_Util =  0.000119 
CoL_Bus_Util = 0.003340 
Either_Row_CoL_Bus_Util = 0.003460 
Issued_on_Two_Bus_Simul_Util = 0.000000 
issued_two_Eff = 0.000000 
queue_avg = 0.215760 


dram_util_bins: 0 0 0 0 0 0 0 0 0 0
dram_eff_bins: 0 0 0 0 0 0 0 0 0 0
mrqq: max=27 avg=0.21576
Memory Partition 4: 
Cache L2_bank_008:
MSHR contents

Cache L2_bank_009:
MSHR contents

In Dram Latency Queue (total = 0): 
DRAM[4]: 16 bks, busW=2 BL=16 CL=24, tRRD=12 tCCD=4, tRCD=24 tRAS=55 tRP=24 tRC=78
n_cmd=16764 n_nop=16714 n_act=2 n_pre=0 n_ref_event=0 n_req=48 n_rd=48 n_rd_L2_A=0 n_write=0 n_wr_bk=0 bw_util=0.01145
n_activity=242 dram_eff=0.7934
bk0: 0a 16764i bk1: 0a 16765i bk2: 0a 16765i bk3: 0a 16765i bk4: 24a 16583i bk5: 24a 16567i bk6: 0a 16763i bk7: 0a 16763i bk8: 0a 16763i bk9: 0a 16764i bk10: 0a 16764i bk11: 0a 16764i bk12: 0a 16764i bk13: 0a 16764i bk14: 0a 16764i bk15: 0a 16764i 

------------------------------------------------------------------------

Row_Buffer_Locality = 0.958333
Row_Buffer_Locality_read = 0.958333
Row_Buffer_Locality_write = -nan
Bank_Level_Parallism = 1.923077
Bank_Level_Parallism_Col = 1.872727
Bank_Level_Parallism_Ready = 1.020833
write_to_read_ratio_blp_rw_average = 0.000000
GrpLevelPara = 1.872727 

BW Util details:
bwutil = 0.011453 
total_CMD = 16764 
util_bw = 192 
Wasted_Col = 32 
Wasted_Row = 0 
Idle = 16540 

BW Util Bottlenecks: 
RCDc_limit = 40 
RCDWRc_limit = 0 
WTRc_limit = 0 
RTWc_limit = 0 
CCDLc_limit = 8 
rwq = 0 
CCDLc_limit_alone = 8 
WTRc_limit_alone = 0 
RTWc_limit_alone = 0 

Commands details: 
total_CMD = 16764 
n_nop = 16714 
Read = 48 
Write = 0 
L2_Alloc = 0 
L2_WB = 0 
n_act = 2 
n_pre = 0 
n_ref = 0 
n_req = 48 
total_req = 48 

Dual Bus Interface Util: 
issued_total_row = 2 
issued_total_col = 48 
Row_Bus_Util =  0.000119 
CoL_Bus_Util = 0.002863 
Either_Row_CoL_Bus_Util = 0.002983 
Issued_on_Two_Bus_Simul_Util = 0.000000 
issued_two_Eff = 0.000000 
queue_avg = 0.156586 


dram_util_bins: 0 0 0 0 0 0 0 0 0 0
dram_eff_bins: 0 0 0 0 0 0 0 0 0 0
mrqq: max=21 avg=0.156586
Memory Partition 5: 
Cache L2_bank_010:
MSHR contents

Cache L2_bank_011:
MSHR contents

In Dram Latency Queue (total = 0): 
DRAM[5]: 16 bks, busW=2 BL=16 CL=24, tRRD=12 tCCD=4, tRCD=24 tRAS=55 tRP=24 tRC=78
n_cmd=16764 n_nop=16714 n_act=2 n_pre=0 n_ref_event=0 n_req=48 n_rd=48 n_rd_L2_A=0 n_write=0 n_wr_bk=0 bw_util=0.01145
n_activity=242 dram_eff=0.7934
bk0: 0a 16764i bk1: 0a 16765i bk2: 0a 16765i bk3: 0a 16765i bk4: 24a 16583i bk5: 24a 16567i bk6: 0a 16763i bk7: 0a 16763i bk8: 0a 16763i bk9: 0a 16764i bk10: 0a 16764i bk11: 0a 16764i bk12: 0a 16764i bk13: 0a 16764i bk14: 0a 16764i bk15: 0a 16764i 

------------------------------------------------------------------------

Row_Buffer_Locality = 0.958333
Row_Buffer_Locality_read = 0.958333
Row_Buffer_Locality_write = -nan
Bank_Level_Parallism = 1.923077
Bank_Level_Parallism_Col = 1.872727
Bank_Level_Parallism_Ready = 1.020833
write_to_read_ratio_blp_rw_average = 0.000000
GrpLevelPara = 1.872727 

BW Util details:
bwutil = 0.011453 
total_CMD = 16764 
util_bw = 192 
Wasted_Col = 32 
Wasted_Row = 0 
Idle = 16540 

BW Util Bottlenecks: 
RCDc_limit = 40 
RCDWRc_limit = 0 
WTRc_limit = 0 
RTWc_limit = 0 
CCDLc_limit = 8 
rwq = 0 
CCDLc_limit_alone = 8 
WTRc_limit_alone = 0 
RTWc_limit_alone = 0 

Commands details: 
total_CMD = 16764 
n_nop = 16714 
Read = 48 
Write = 0 
L2_Alloc = 0 
L2_WB = 0 
n_act = 2 
n_pre = 0 
n_ref = 0 
n_req = 48 
total_req = 48 

Dual Bus Interface Util: 
issued_total_row = 2 
issued_total_col = 48 
Row_Bus_Util =  0.000119 
CoL_Bus_Util = 0.002863 
Either_Row_CoL_Bus_Util = 0.002983 
Issued_on_Two_Bus_Simul_Util = 0.000000 
issued_two_Eff = 0.000000 
queue_avg = 0.190110 


dram_util_bins: 0 0 0 0 0 0 0 0 0 0
dram_eff_bins: 0 0 0 0 0 0 0 0 0 0
mrqq: max=25 avg=0.19011
Memory Partition 6: 
Cache L2_bank_012:
MSHR contents

Cache L2_bank_013:
MSHR contents

In Dram Latency Queue (total = 0): 
DRAM[6]: 16 bks, busW=2 BL=16 CL=24, tRRD=12 tCCD=4, tRCD=24 tRAS=55 tRP=24 tRC=78
n_cmd=16764 n_nop=16714 n_act=2 n_pre=0 n_ref_event=0 n_req=48 n_rd=48 n_rd_L2_A=0 n_write=0 n_wr_bk=0 bw_util=0.01145
n_activity=240 dram_eff=0.8
bk0: 0a 16764i bk1: 0a 16765i bk2: 0a 16765i bk3: 0a 16766i bk4: 24a 16571i bk5: 24a 16579i bk6: 0a 16762i bk7: 0a 16763i bk8: 0a 16763i bk9: 0a 16763i bk10: 0a 16763i bk11: 0a 16764i bk12: 0a 16764i bk13: 0a 16764i bk14: 0a 16764i bk15: 0a 16764i 

------------------------------------------------------------------------

Row_Buffer_Locality = 0.958333
Row_Buffer_Locality_read = 0.958333
Row_Buffer_Locality_write = -nan
Bank_Level_Parallism = 1.949772
Bank_Level_Parallism_Col = 1.899083
Bank_Level_Parallism_Ready = 1.020833
write_to_read_ratio_blp_rw_average = 0.000000
GrpLevelPara = 1.899083 

BW Util details:
bwutil = 0.011453 
total_CMD = 16764 
util_bw = 192 
Wasted_Col = 30 
Wasted_Row = 0 
Idle = 16542 

BW Util Bottlenecks: 
RCDc_limit = 40 
RCDWRc_limit = 0 
WTRc_limit = 0 
RTWc_limit = 0 
CCDLc_limit = 6 
rwq = 0 
CCDLc_limit_alone = 6 
WTRc_limit_alone = 0 
RTWc_limit_alone = 0 

Commands details: 
total_CMD = 16764 
n_nop = 16714 
Read = 48 
Write = 0 
L2_Alloc = 0 
L2_WB = 0 
n_act = 2 
n_pre = 0 
n_ref = 0 
n_req = 48 
total_req = 48 

Dual Bus Interface Util: 
issued_total_row = 2 
issued_total_col = 48 
Row_Bus_Util =  0.000119 
CoL_Bus_Util = 0.002863 
Either_Row_CoL_Bus_Util = 0.002983 
Issued_on_Two_Bus_Simul_Util = 0.000000 
issued_two_Eff = 0.000000 
queue_avg = 0.116738 


dram_util_bins: 0 0 0 0 0 0 0 0 0 0
dram_eff_bins: 0 0 0 0 0 0 0 0 0 0
mrqq: max=18 avg=0.116738
Memory Partition 7: 
Cache L2_bank_014:
MSHR contents

Cache L2_bank_015:
MSHR contents

In Dram Latency Queue (total = 0): 
DRAM[7]: 16 bks, busW=2 BL=16 CL=24, tRRD=12 tCCD=4, tRCD=24 tRAS=55 tRP=24 tRC=78
n_cmd=16764 n_nop=16714 n_act=2 n_pre=0 n_ref_event=0 n_req=48 n_rd=48 n_rd_L2_A=0 n_write=0 n_wr_bk=0 bw_util=0.01145
n_activity=240 dram_eff=0.8
bk0: 0a 16764i bk1: 0a 16765i bk2: 0a 16765i bk3: 0a 16766i bk4: 24a 16571i bk5: 24a 16579i bk6: 0a 16762i bk7: 0a 16763i bk8: 0a 16763i bk9: 0a 16763i bk10: 0a 16763i bk11: 0a 16764i bk12: 0a 16764i bk13: 0a 16764i bk14: 0a 16764i bk15: 0a 16764i 

------------------------------------------------------------------------

Row_Buffer_Locality = 0.958333
Row_Buffer_Locality_read = 0.958333
Row_Buffer_Locality_write = -nan
Bank_Level_Parallism = 1.949772
Bank_Level_Parallism_Col = 1.899083
Bank_Level_Parallism_Ready = 1.020833
write_to_read_ratio_blp_rw_average = 0.000000
GrpLevelPara = 1.899083 

BW Util details:
bwutil = 0.011453 
total_CMD = 16764 
util_bw = 192 
Wasted_Col = 30 
Wasted_Row = 0 
Idle = 16542 

BW Util Bottlenecks: 
RCDc_limit = 40 
RCDWRc_limit = 0 
WTRc_limit = 0 
RTWc_limit = 0 
CCDLc_limit = 6 
rwq = 0 
CCDLc_limit_alone = 6 
WTRc_limit_alone = 0 
RTWc_limit_alone = 0 

Commands details: 
total_CMD = 16764 
n_nop = 16714 
Read = 48 
Write = 0 
L2_Alloc = 0 
L2_WB = 0 
n_act = 2 
n_pre = 0 
n_ref = 0 
n_req = 48 
total_req = 48 

Dual Bus Interface Util: 
issued_total_row = 2 
issued_total_col = 48 
Row_Bus_Util =  0.000119 
CoL_Bus_Util = 0.002863 
Either_Row_CoL_Bus_Util = 0.002983 
Issued_on_Two_Bus_Simul_Util = 0.000000 
issued_two_Eff = 0.000000 
queue_avg = 0.104808 


dram_util_bins: 0 0 0 0 0 0 0 0 0 0
dram_eff_bins: 0 0 0 0 0 0 0 0 0 0
mrqq: max=16 avg=0.104808
Memory Partition 8: 
Cache L2_bank_016:
MSHR contents

Cache L2_bank_017:
MSHR contents

In Dram Latency Queue (total = 0): 
DRAM[8]: 16 bks, busW=2 BL=16 CL=24, tRRD=12 tCCD=4, tRCD=24 tRAS=55 tRP=24 tRC=78
n_cmd=16764 n_nop=16738 n_act=2 n_pre=0 n_ref_event=0 n_req=24 n_rd=24 n_rd_L2_A=0 n_write=0 n_wr_bk=0 bw_util=0.005727
n_activity=144 dram_eff=0.6667
bk0: 0a 16764i bk1: 0a 16765i bk2: 0a 16765i bk3: 0a 16766i bk4: 12a 16655i bk5: 12a 16663i bk6: 0a 16762i bk7: 0a 16763i bk8: 0a 16763i bk9: 0a 16763i bk10: 0a 16763i bk11: 0a 16764i bk12: 0a 16764i bk13: 0a 16764i bk14: 0a 16764i bk15: 0a 16764i 

------------------------------------------------------------------------

Row_Buffer_Locality = 0.916667
Row_Buffer_Locality_read = 0.916667
Row_Buffer_Locality_write = -nan
Bank_Level_Parallism = 1.910569
Bank_Level_Parallism_Col = 1.819672
[...]

Row_Buffer_Locality = 0.958333
Row_Buffer_Locality_read = 0.958333
Row_Buffer_Locality_write = -nan
Bank_Level_Parallism = 1.923077
Bank_Level_Parallism_Col = 1.872727
Bank_Level_Parallism_Ready = 1.020833
write_to_read_ratio_blp_rw_average = 0.000000
GrpLevelPara = 1.872727 

BW Util details:
bwutil = 0.000738 
total_CMD = 260256 
util_bw = 192 
Wasted_Col = 32 
Wasted_Row = 0 
Idle = 260032 

BW Util Bottlenecks: 
RCDc_limit = 40 
RCDWRc_limit = 0 
WTRc_limit = 0 
RTWc_limit = 0 
CCDLc_limit = 8 
rwq = 0 
CCDLc_limit_alone = 8 
WTRc_limit_alone = 0 
RTWc_limit_alone = 0 

Commands details: 
total_CMD = 260256 
n_nop = 260206 
Read = 48 
Write = 0 
L2_Alloc = 0 
L2_WB = 0 
n_act = 2 
n_pre = 0 
n_ref = 0 
n_req = 48 
total_req = 48 

Dual Bus Interface Util: 
issued_total_row = 2 
issued_total_col = 48 
Row_Bus_Util =  0.000008 
CoL_Bus_Util = 0.000184 
Either_Row_CoL_Bus_Util = 0.000192 
Issued_on_Two_Bus_Simul_Util = 0.000000 
issued_two_Eff = 0.000000 
queue_avg = 0.012246 


dram_util_bins: 0 0 0 0 0 0 0 0 0 0
dram_eff_bins: 0 0 0 0 0 0 0 0 0 0
mrqq: max=25 avg=0.0122456
Memory Partition 6: 
Cache L2_bank_012:
MSHR contents

Cache L2_bank_013:
MSHR contents

In Dram Latency Queue (total = 0): 
DRAM[6]: 16 bks, busW=2 BL=16 CL=24, tRRD=12 tCCD=4, tRCD=24 tRAS=55 tRP=24 tRC=78
n_cmd=260256 n_nop=260206 n_act=2 n_pre=0 n_ref_event=0 n_req=48 n_rd=48 n_rd_L2_A=0 n_write=0 n_wr_bk=0 bw_util=0.0007377
n_activity=240 dram_eff=0.8
bk0: 0a 260256i bk1: 0a 260257i bk2: 0a 260257i bk3: 0a 260258i bk4: 24a 260063i bk5: 24a 260071i bk6: 0a 260254i bk7: 0a 260255i bk8: 0a 260255i bk9: 0a 260255i bk10: 0a 260255i bk11: 0a 260256i bk12: 0a 260256i bk13: 0a 260256i bk14: 0a 260256i bk15: 0a 260256i 

------------------------------------------------------------------------

Row_Buffer_Locality = 0.958333
Row_Buffer_Locality_read = 0.958333
Row_Buffer_Locality_write = -nan
Bank_Level_Parallism = 1.949772
Bank_Level_Parallism_Col = 1.899083
Bank_Level_Parallism_Ready = 1.020833
write_to_read_ratio_blp_rw_average = 0.000000
GrpLevelPara = 1.899083 

BW Util details:
bwutil = 0.000738 
total_CMD = 260256 
util_bw = 192 
Wasted_Col = 30 
Wasted_Row = 0 
Idle = 260034 

BW Util Bottlenecks: 
RCDc_limit = 40 
RCDWRc_limit = 0 
WTRc_limit = 0 
RTWc_limit = 0 
CCDLc_limit = 6 
rwq = 0 
CCDLc_limit_alone = 6 
WTRc_limit_alone = 0 
RTWc_limit_alone = 0 

Commands details: 
total_CMD = 260256 
n_nop = 260206 
Read = 48 
Write = 0 
L2_Alloc = 0 
L2_WB = 0 
n_act = 2 
n_pre = 0 
n_ref = 0 
n_req = 48 
total_req = 48 

Dual Bus Interface Util: 
issued_total_row = 2 
issued_total_col = 48 
Row_Bus_Util =  0.000008 
CoL_Bus_Util = 0.000184 
Either_Row_CoL_Bus_Util = 0.000192 
Issued_on_Two_Bus_Simul_Util = 0.000000 
issued_two_Eff = 0.000000 
queue_avg = 0.007520 


dram_util_bins: 0 0 0 0 0 0 0 0 0 0
dram_eff_bins: 0 0 0 0 0 0 0 0 0 0
mrqq: max=18 avg=0.00751952
Memory Partition 7: 
Cache L2_bank_014:
MSHR contents

Cache L2_bank_015:
MSHR contents

In Dram Latency Queue (total = 0): 
DRAM[7]: 16 bks, busW=2 BL=16 CL=24, tRRD=12 tCCD=4, tRCD=24 tRAS=55 tRP=24 tRC=78
n_cmd=260256 n_nop=260206 n_act=2 n_pre=0 n_ref_event=0 n_req=48 n_rd=48 n_rd_L2_A=0 n_write=0 n_wr_bk=0 bw_util=0.0007377
n_activity=240 dram_eff=0.8
bk0: 0a 260256i bk1: 0a 260257i bk2: 0a 260257i bk3: 0a 260258i bk4: 24a 260063i bk5: 24a 260071i bk6: 0a 260254i bk7: 0a 260255i bk8: 0a 260255i bk9: 0a 260255i bk10: 0a 260255i bk11: 0a 260256i bk12: 0a 260256i bk13: 0a 260256i bk14: 0a 260256i bk15: 0a 260256i 

------------------------------------------------------------------------

Row_Buffer_Locality = 0.958333
Row_Buffer_Locality_read = 0.958333
Row_Buffer_Locality_write = -nan
Bank_Level_Parallism = 1.949772
Bank_Level_Parallism_Col = 1.899083
Bank_Level_Parallism_Ready = 1.020833
write_to_read_ratio_blp_rw_average = 0.000000
GrpLevelPara = 1.899083 

BW Util details:
bwutil = 0.000738 
total_CMD = 260256 
util_bw = 192 
Wasted_Col = 30 
Wasted_Row = 0 
Idle = 260034 

BW Util Bottlenecks: 
RCDc_limit = 40 
RCDWRc_limit = 0 
WTRc_limit = 0 
RTWc_limit = 0 
CCDLc_limit = 6 
rwq = 0 
CCDLc_limit_alone = 6 
WTRc_limit_alone = 0 
RTWc_limit_alone = 0 

Commands details: 
total_CMD = 260256 
n_nop = 260206 
Read = 48 
Write = 0 
L2_Alloc = 0 
L2_WB = 0 
n_act = 2 
n_pre = 0 
n_ref = 0 
n_req = 48 
total_req = 48 

Dual Bus Interface Util: 
issued_total_row = 2 
issued_total_col = 48 
Row_Bus_Util =  0.000008 
CoL_Bus_Util = 0.000184 
Either_Row_CoL_Bus_Util = 0.000192 
Issued_on_Two_Bus_Simul_Util = 0.000000 
issued_two_Eff = 0.000000 
queue_avg = 0.006751 


dram_util_bins: 0 0 0 0 0 0 0 0 0 0
dram_eff_bins: 0 0 0 0 0 0 0 0 0 0
mrqq: max=16 avg=0.00675105
Memory Partition 8: 
Cache L2_bank_016:
MSHR contents

Cache L2_bank_017:
MSHR contents

In Dram Latency Queue (total = 0): 
DRAM[8]: 16 bks, busW=2 BL=16 CL=24, tRRD=12 tCCD=4, tRCD=24 tRAS=55 tRP=24 tRC=78
n_cmd=260256 n_nop=260230 n_act=2 n_pre=0 n_ref_event=0 n_req=24 n_rd=24 n_rd_L2_A=0 n_write=0 n_wr_bk=0 bw_util=0.0003689
n_activity=144 dram_eff=0.6667
bk0: 0a 260256i bk1: 0a 260257i bk2: 0a 260257i bk3: 0a 260258i bk4: 12a 260147i bk5: 12a 260155i bk6: 0a 260254i bk7: 0a 260255i bk8: 0a 260255i bk9: 0a 260255i bk10: 0a 260255i bk11: 0a 260256i bk12: 0a 260256i bk13: 0a 260256i bk14: 0a 260256i bk15: 0a 260256i 

------------------------------------------------------------------------

Row_Buffer_Locality = 0.916667
Row_Buffer_Locality_read = 0.916667
Row_Buffer_Locality_write = -nan
Bank_Level_Parallism = 1.910569
Bank_Level_Parallism_Col = 1.819672
Bank_Level_Parallism_Ready = 1.041667
write_to_read_ratio_blp_rw_average = 0.000000
GrpLevelPara = 1.819672 

BW Util details:
bwutil = 0.000369 
total_CMD = 260256 
util_bw = 96 
Wasted_Col = 30 
Wasted_Row = 0 
Idle = 260130 

BW Util Bottlenecks: 
RCDc_limit = 40 
RCDWRc_limit = 0 
WTRc_limit = 0 
RTWc_limit = 0 
CCDLc_limit = 6 
rwq = 0 
CCDLc_limit_alone = 6 
WTRc_limit_alone = 0 
RTWc_limit_alone = 0 

Commands details: 
total_CMD = 260256 
n_nop = 260230 
Read = 24 
Write = 0 
L2_Alloc = 0 
L2_WB = 0 
n_act = 2 
n_pre = 0 
n_ref = 0 
n_req = 24 
total_req = 24 

Dual Bus Interface Util: 
issued_total_row = 2 
issued_total_col = 24 
Row_Bus_Util =  0.000008 
CoL_Bus_Util = 0.000092 
Either_Row_CoL_Bus_Util = 0.000100 
Issued_on_Two_Bus_Simul_Util = 0.000000 
issued_two_Eff = 0.000000 
queue_avg = 0.001979 


dram_util_bins: 0 0 0 0 0 0 0 0 0 0
dram_eff_bins: 0 0 0 0 0 0 0 0 0 0
mrqq: max=9 avg=0.00197882
Memory Partition 9: 
Cache L2_bank_018:
MSHR contents

Cache L2_bank_019:
MSHR contents

In Dram Latency Queue (total = 0): 
DRAM[9]: 16 bks, busW=2 BL=16 CL=24, tRRD=12 tCCD=4, tRCD=24 tRAS=55 tRP=24 tRC=78
n_cmd=260256 n_nop=260230 n_act=2 n_pre=0 n_ref_event=0 n_req=24 n_rd=24 n_rd_L2_A=0 n_write=0 n_wr_bk=0 bw_util=0.0003689
n_activity=144 dram_eff=0.6667
bk0: 0a 260256i bk1: 0a 260257i bk2: 0a 260257i bk3: 0a 260258i bk4: 12a 260147i bk5: 12a 260155i bk6: 0a 260254i bk7: 0a 260255i bk8: 0a 260255i bk9: 0a 260255i bk10: 0a 260255i bk11: 0a 260256i bk12: 0a 260256i bk13: 0a 260256i bk14: 0a 260256i bk15: 0a 260256i 

------------------------------------------------------------------------

Row_Buffer_Locality = 0.916667
Row_Buffer_Locality_read = 0.916667
Row_Buffer_Locality_write = -nan
Bank_Level_Parallism = 1.910569
Bank_Level_Parallism_Col = 1.819672
Bank_Level_Parallism_Ready = 1.041667
write_to_read_ratio_blp_rw_average = 0.000000
GrpLevelPara = 1.819672 

BW Util details:
bwutil = 0.000369 
total_CMD = 260256 
util_bw = 96 
Wasted_Col = 30 
Wasted_Row = 0 
Idle = 260130 

BW Util Bottlenecks: 
RCDc_limit = 40 
RCDWRc_limit = 0 
WTRc_limit = 0 
RTWc_limit = 0 
CCDLc_limit = 6 
rwq = 0 
CCDLc_limit_alone = 6 
WTRc_limit_alone = 0 
RTWc_limit_alone = 0 

Commands details: 
total_CMD = 260256 
n_nop = 260230 
Read = 24 
Write = 0 
L2_Alloc = 0 
L2_WB = 0 
n_act = 2 
n_pre = 0 
n_ref = 0 
n_req = 24 
total_req = 24 

Dual Bus Interface Util: 
issued_total_row = 2 
issued_total_col = 24 
Row_Bus_Util =  0.000008 
CoL_Bus_Util = 0.000092 
Either_Row_CoL_Bus_Util = 0.000100 
Issued_on_Two_Bus_Simul_Util = 0.000000 
issued_two_Eff = 0.000000 
queue_avg = 0.002448 


dram_util_bins: 0 0 0 0 0 0 0 0 0 0
dram_eff_bins: 0 0 0 0 0 0 0 0 0 0
mrqq: max=12 avg=0.00244759
Memory Partition 10: 
Cache L2_bank_020:
MSHR contents

Cache L2_bank_021:
MSHR contents

In Dram Latency Queue (total = 0): 
DRAM[10]: 16 bks, busW=2 BL=16 CL=24, tRRD=12 tCCD=4, tRCD=24 tRAS=55 tRP=24 tRC=78
n_cmd=260256 n_nop=260230 n_act=2 n_pre=0 n_ref_event=0 n_req=24 n_rd=24 n_rd_L2_A=0 n_write=0 n_wr_bk=0 bw_util=0.0003689
n_activity=153 dram_eff=0.6275
bk0: 0a 260256i bk1: 0a 260257i bk2: 0a 260257i bk3: 0a 260258i bk4: 12a 260160i bk5: 12a 260160i bk6: 0a 260254i bk7: 0a 260255i bk8: 0a 260255i bk9: 0a 260255i bk10: 0a 260255i bk11: 0a 260256i bk12: 0a 260256i bk13: 0a 260256i bk14: 0a 260256i bk15: 0a 260256i 

------------------------------------------------------------------------

Row_Buffer_Locality = 0.916667
Row_Buffer_Locality_read = 0.916667
Row_Buffer_Locality_write = -nan
Bank_Level_Parallism = 1.808333
Bank_Level_Parallism_Col = 1.714286
Bank_Level_Parallism_Ready = 1.041667
write_to_read_ratio_blp_rw_average = 0.000000
GrpLevelPara = 1.714286 

BW Util details:
bwutil = 0.000369 
total_CMD = 260256 
util_bw = 96 
Wasted_Col = 30 
Wasted_Row = 0 
Idle = 260130 

BW Util Bottlenecks: 
RCDc_limit = 40 
RCDWRc_limit = 0 
WTRc_limit = 0 
RTWc_limit = 0 
CCDLc_limit = 6 
rwq = 0 
CCDLc_limit_alone = 6 
WTRc_limit_alone = 0 
RTWc_limit_alone = 0 

Commands details: 
total_CMD = 260256 
n_nop = 260230 
Read = 24 
Write = 0 
L2_Alloc = 0 
L2_WB = 0 
n_act = 2 
n_pre = 0 
n_ref = 0 
n_req = 24 
total_req = 24 

Dual Bus Interface Util: 
issued_total_row = 2 
issued_total_col = 24 
Row_Bus_Util =  0.000008 
CoL_Bus_Util = 0.000092 
Either_Row_CoL_Bus_Util = 0.000100 
Issued_on_Two_Bus_Simul_Util = 0.000000 
issued_two_Eff = 0.000000 
queue_avg = 0.001080 


dram_util_bins: 0 0 0 0 0 0 0 0 0 0
dram_eff_bins: 0 0 0 0 0 0 0 0 0 0
mrqq: max=6 avg=0.00107971
Memory Partition 11: 
Cache L2_bank_022:
MSHR contents

Cache L2_bank_023:
MSHR contents

In Dram Latency Queue (total = 0): 
DRAM[11]: 16 bks, busW=2 BL=16 CL=24, tRRD=12 tCCD=4, tRCD=24 tRAS=55 tRP=24 tRC=78
n_cmd=260256 n_nop=260230 n_act=2 n_pre=0 n_ref_event=0 n_req=24 n_rd=24 n_rd_L2_A=0 n_write=0 n_wr_bk=0 bw_util=0.0003689
n_activity=152 dram_eff=0.6316
bk0: 0a 260256i bk1: 0a 260257i bk2: 0a 260257i bk3: 0a 260258i bk4: 12a 260156i bk5: 12a 260159i bk6: 0a 260254i bk7: 0a 260255i bk8: 0a 260255i bk9: 0a 260255i bk10: 0a 260255i bk11: 0a 260256i bk12: 0a 260256i bk13: 0a 260256i bk14: 0a 260256i bk15: 0a 260256i 

------------------------------------------------------------------------

Row_Buffer_Locality = 0.916667
Row_Buffer_Locality_read = 0.916667
Row_Buffer_Locality_write = -nan
Bank_Level_Parallism = 1.850000
Bank_Level_Parallism_Col = 1.756302
Bank_Level_Parallism_Ready = 1.041667
write_to_read_ratio_blp_rw_average = 0.000000
GrpLevelPara = 1.756302 

BW Util details:
bwutil = 0.000369 
total_CMD = 260256 
util_bw = 96 
Wasted_Col = 30 
Wasted_Row = 0 
Idle = 260130 

BW Util Bottlenecks: 
RCDc_limit = 40 
RCDWRc_limit = 0 
WTRc_limit = 0 
RTWc_limit = 0 
CCDLc_limit = 6 
rwq = 0 
CCDLc_limit_alone = 6 
WTRc_limit_alone = 0 
RTWc_limit_alone = 0 

Commands details: 
total_CMD = 260256 
n_nop = 260230 
Read = 24 
Write = 0 
L2_Alloc = 0 
L2_WB = 0 
n_act = 2 
n_pre = 0 
n_ref = 0 
n_req = 24 
total_req = 24 

Dual Bus Interface Util: 
issued_total_row = 2 
issued_total_col = 24 
Row_Bus_Util =  0.000008 
CoL_Bus_Util = 0.000092 
Either_Row_CoL_Bus_Util = 0.000100 
Issued_on_Two_Bus_Simul_Util = 0.000000 
issued_two_Eff = 0.000000 
queue_avg = 0.001483 


dram_util_bins: 0 0 0 0 0 0 0 0 0 0
dram_eff_bins: 0 0 0 0 0 0 0 0 0 0
mrqq: max=8 avg=0.00148316

========= L2 cache stats =========
L2_cache_bank[0]: Access = 1152, Miss = 60, Miss_rate = 0.052, Pending_hits = 0, Reservation_fails = 0
L2_cache_bank[1]: Access = 1152, Miss = 60, Miss_rate = 0.052, Pending_hits = 0, Reservation_fails = 0
L2_cache_bank[2]: Access = 1152, Miss = 60, Miss_rate = 0.052, Pending_hits = 0, Reservation_fails = 0
L2_cache_bank[3]: Access = 1152, Miss = 60, Miss_rate = 0.052, Pending_hits = 0, Reservation_fails = 0
L2_cache_bank[4]: Access = 1152, Miss = 60, Miss_rate = 0.052, Pending_hits = 0, Reservation_fails = 0
L2_cache_bank[5]: Access = 1152, Miss = 60, Miss_rate = 0.052, Pending_hits = 0, Reservation_fails = 0
L2_cache_bank[6]: Access = 1152, Miss = 60, Miss_rate = 0.052, Pending_hits = 0, Reservation_fails = 0
L2_cache_bank[7]: Access = 1152, Miss = 60, Miss_rate = 0.052, Pending_hits = 0, Reservation_fails = 0
L2_cache_bank[8]: Access = 736, Miss = 40, Miss_rate = 0.054, Pending_hits = 0, Reservation_fails = 0
L2_cache_bank[9]: Access = 736, Miss = 40, Miss_rate = 0.054, Pending_hits = 0, Reservation_fails = 0
L2_cache_bank[10]: Access = 736, Miss = 40, Miss_rate = 0.054, Pending_hits = 0, Reservation_fails = 0
L2_cache_bank[11]: Access = 736, Miss = 40, Miss_rate = 0.054, Pending_hits = 0, Reservation_fails = 0
L2_cache_bank[12]: Access = 736, Miss = 40, Miss_rate = 0.054, Pending_hits = 0, Reservation_fails = 0
L2_cache_bank[13]: Access = 736, Miss = 40, Miss_rate = 0.054, Pending_hits = 0, Reservation_fails = 0
L2_cache_bank[14]: Access = 736, Miss = 40, Miss_rate = 0.054, Pending_hits = 0, Reservation_fails = 0
L2_cache_bank[15]: Access = 736, Miss = 40, Miss_rate = 0.054, Pending_hits = 0, Reservation_fails = 0
L2_cache_bank[16]: Access = 544, Miss = 28, Miss_rate = 0.051, Pending_hits = 0, Reservation_fails = 0
L2_cache_bank[17]: Access = 544, Miss = 28, Miss_rate = 0.051, Pending_hits = 0, Reservation_fails = 0
L2_cache_bank[18]: Access = 544, Miss = 28, Miss_rate = 0.051, Pending_hits = 0, Reservation_fails = 0
L2_cache_bank[19]: Access = 544, Miss = 28, Miss_rate = 0.051, Pending_hits = 0, Reservation_fails = 0
L2_cache_bank[20]: Access = 544, Miss = 28, Miss_rate = 0.051, Pending_hits = 0, Reservation_fails = 0
L2_cache_bank[21]: Access = 544, Miss = 28, Miss_rate = 0.051, Pending_hits = 0, Reservation_fails = 0
L2_cache_bank[22]: Access = 544, Miss = 28, Miss_rate = 0.051, Pending_hits = 0, Reservation_fails = 0
L2_cache_bank[23]: Access = 544, Miss = 28, Miss_rate = 0.051, Pending_hits = 0, Reservation_fails = 0
L2_total_cache_accesses = 19456
L2_total_cache_misses = 1024
L2_total_cache_miss_rate = 0.0526
L2_total_cache_pending_hits = 0
L2_total_cache_reservation_fails = 0
L2_total_cache_breakdown:
	L2_cache_stats_breakdown[GLOBAL_ACC_R][HIT] = 7680
	L2_cache_stats_breakdown[GLOBAL_ACC_R][HIT_RESERVED] = 0
	L2_cache_stats_breakdown[GLOBAL_ACC_R][MISS] = 128
	L2_cache_stats_breakdown[GLOBAL_ACC_R][RESERVATION_FAIL] = 0
	L2_cache_stats_breakdown[GLOBAL_ACC_R][SECTOR_MISS] = 384
	L2_cache_stats_breakdown[GLOBAL_ACC_R][MSHR_HIT] = 0
	L2_cache_stats_breakdown[LOCAL_ACC_R][HIT] = 0
	L2_cache_stats_breakdown[LOCAL_ACC_R][HIT_RESERVED] = 0
	L2_cache_stats_breakdown[LOCAL_ACC_R][MISS] = 0
	L2_cache_stats_breakdown[LOCAL_ACC_R][RESERVATION_FAIL] = 0
	L2_cache_stats_breakdown[LOCAL_ACC_R][SECTOR_MISS] = 0
	L2_cache_stats_breakdown[LOCAL_ACC_R][MSHR_HIT] = 0
	L2_cache_stats_breakdown[CONST_ACC_R][HIT] = 0
	L2_cache_stats_breakdown[CONST_ACC_R][HIT_RESERVED] = 0
	L2_cache_stats_breakdown[CONST_ACC_R][MISS] = 0
	L2_cache_stats_breakdown[CONST_ACC_R][RESERVATION_FAIL] = 0
	L2_cache_stats_breakdown[CONST_ACC_R][SECTOR_MISS] = 0
	L2_cache_stats_breakdown[CONST_ACC_R][MSHR_HIT] = 0
	L2_cache_stats_breakdown[TEXTURE_ACC_R][HIT] = 0
	L2_cache_stats_breakdown[TEXTURE_ACC_R][HIT_RESERVED] = 0
	L2_cache_stats_breakdown[TEXTURE_ACC_R][MISS] = 0
	L2_cache_stats_breakdown[TEXTURE_ACC_R][RESERVATION_FAIL] = 0
	L2_cache_stats_breakdown[TEXTURE_ACC_R][SECTOR_MISS] = 0
	L2_cache_stats_breakdown[TEXTURE_ACC_R][MSHR_HIT] = 0
	L2_cache_stats_breakdown[GLOBAL_ACC_W][HIT] = 10752
	L2_cache_stats_breakdown[GLOBAL_ACC_W][HIT_RESERVED] = 0
	L2_cache_stats_breakdown[GLOBAL_ACC_W][MISS] = 128
	L2_cache_stats_breakdown[GLOBAL_ACC_W][RESERVATION_FAIL] = 0
	L2_cache_stats_breakdown[GLOBAL_ACC_W][SECTOR_MISS] = 384
	L2_cache_stats_breakdown[GLOBAL_ACC_W][MSHR_HIT] = 0
	L2_cache_stats_breakdown[LOCAL_ACC_W][HIT] = 0
	L2_cache_stats_breakdown[LOCAL_ACC_W][HIT_RESERVED] = 0
	L2_cache_stats_breakdown[LOCAL_ACC_W][MISS] = 0
	L2_cache_stats_breakdown[LOCAL_ACC_W][RESERVATION_FAIL] = 0
	L2_cache_stats_breakdown[LOCAL_ACC_W][SECTOR_MISS] = 0
	L2_cache_stats_breakdown[LOCAL_ACC_W][MSHR_HIT] = 0
	L2_cache_stats_breakdown[L1_WRBK_ACC][HIT] = 0
	L2_cache_stats_breakdown[L1_WRBK_ACC][HIT_RESERVED] = 0
	L2_cache_stats_breakdown[L1_WRBK_ACC][MISS] = 0
	L2_cache_stats_breakdown[L1_WRBK_ACC][RESERVATION_FAIL] = 0
	L2_cache_stats_breakdown[L1_WRBK_ACC][SECTOR_MISS] = 0
	L2_cache_stats_breakdown[L1_WRBK_ACC][MSHR_HIT] = 0
	L2_cache_stats_breakdown[L2_WRBK_ACC][HIT] = 0
	L2_cache_stats_breakdown[L2_WRBK_ACC][HIT_RESERVED] = 0
	L2_cache_stats_breakdown[L2_WRBK_ACC][MISS] = 0
	L2_cache_stats_breakdown[L2_WRBK_ACC][RESERVATION_FAIL] = 0
	L2_cache_stats_breakdown[L2_WRBK_ACC][SECTOR_MISS] = 0
	L2_cache_stats_breakdown[L2_WRBK_ACC][MSHR_HIT] = 0
	L2_cache_stats_breakdown[INST_ACC_R][HIT] = 0
	L2_cache_stats_breakdown[INST_ACC_R][HIT_RESERVED] = 0
	L2_cache_stats_breakdown[INST_ACC_R][MISS] = 0
	L2_cache_stats_breakdown[INST_ACC_R][RESERVATION_FAIL] = 0
	L2_cache_stats_breakdown[INST_ACC_R][SECTOR_MISS] = 0
	L2_cache_stats_breakdown[INST_ACC_R][MSHR_HIT] = 0
	L2_cache_stats_breakdown[L1_WR_ALLOC_R][HIT] = 0
	L2_cache_stats_breakdown[L1_WR_ALLOC_R][HIT_RESERVED] = 0
	L2_cache_stats_breakdown[L1_WR_ALLOC_R][MISS] = 0
	L2_cache_stats_breakdown[L1_WR_ALLOC_R][RESERVATION_FAIL] = 0
	L2_cache_stats_breakdown[L1_WR_ALLOC_R][SECTOR_MISS] = 0
	L2_cache_stats_breakdown[L1_WR_ALLOC_R][MSHR_HIT] = 0
	L2_cache_stats_breakdown[L2_WR_ALLOC_R][HIT] = 0
	L2_cache_stats_breakdown[L2_WR_ALLOC_R][HIT_RESERVED] = 0
	L2_cache_stats_breakdown[L2_WR_ALLOC_R][MISS] = 0
	L2_cache_stats_breakdown[L2_WR_ALLOC_R][RESERVATION_FAIL] = 0
	L2_cache_stats_breakdown[L2_WR_ALLOC_R][SECTOR_MISS] = 0
	L2_cache_stats_breakdown[L2_WR_ALLOC_R][MSHR_HIT] = 0
	L2_cache_stats_breakdown[GLOBAL_ACC_R][TOTAL_ACCESS] = 8192
	L2_cache_stats_breakdown[GLOBAL_ACC_W][TOTAL_ACCESS] = 11264
L2_total_cache_reservation_fail_breakdown:
L2_cache_data_port_util = 0.008
L2_cache_fill_port_util = 0.000

icnt_total_pkts_mem_to_simt=19456
icnt_total_pkts_simt_to_mem=19456
LD_mem_lat_dist  0 0 0 0 0 0 0 0 0 0 0 0 0 0 0 0 0 0 0 0 0 0 0 0 0 0 0
ST_mem_lat_dist  0 0 0 0 0 0 0 0 0 0 0 0 0 0 0 0 0 0 0 0 0 0 0 0 0 0 0
----------------------------Interconnect-DETAILS--------------------------------
Req_Network_injected_packets_num = 19456
Req_Network_cycles = 91741
Req_Network_injected_packets_per_cycle =       0.2121 
Req_Network_conflicts_per_cycle =       0.0924
Req_Network_conflicts_per_cycle_util =       3.5772
Req_Bank_Level_Parallism =       8.2093
Req_Network_in_buffer_full_per_cycle =       0.0000
Req_Network_in_buffer_avg_util =       0.0174
Req_Network_out_buffer_full_per_cycle =       0.0000
Req_Network_out_buffer_avg_util =       0.0088

Reply_Network_injected_packets_num = 19456
Reply_Network_cycles = 91741
Reply_Network_injected_packets_per_cycle =        0.2121
Reply_Network_conflicts_per_cycle =        0.1179
Reply_Network_conflicts_per_cycle_util =       4.3299
Reply_Bank_Level_Parallism =       7.7886
Reply_Network_in_buffer_full_per_cycle =       0.0000
Reply_Network_in_buffer_avg_util =       0.0254
Reply_Network_out_buffer_full_per_cycle =       0.0000
Reply_Network_out_buffer_avg_util =       0.0025
----------------------------END-of-Interconnect-DETAILS-------------------------


gpgpu_simulation_time = 0 days, 0 hrs, 0 min, 58 sec (58 sec)
gpgpu_simulation_rate = 39009 (inst/sec)
gpgpu_simulation_rate = 1581 (cycle/sec)
gpgpu_silicon_slowdown = 891840x
GPGPU-Sim: *** simulation thread exiting ***
GPGPU-Sim: *** exit detected ***
