Skipping setup_environment - already set
doing: export -n PTX_SIM_USE_PTX_FILE
doing: export LD_LIBRARY_PATH=/work/util/job_launching/../../sim_run_10.1/gpgpu-sim-builds/gpgpu-sim_git-commit-13c67115070dc2f0876254a790d0238073ca364a_modified_0.0:/work/gpu-simulator/gpgpu-sim/lib/gcc-7.5.0/cuda-10010/release:/usr/local/nvidia/lib:/usr/local/nvidia/lib64
doing: cd /work/util/job_launching/../../sim_run_10.1/heartwall-rodinia-2.0-ft/__data_test_avi_1___data_result_1_txt/QV100-PTX
doing: export OPENCL_CURRENT_TEST_PATH=/work/util/job_launching/../../sim_run_10.1/heartwall-rodinia-2.0-ft/__data_test_avi_1___data_result_1_txt/QV100-PTX
doing: export OPENCL_REMOTE_GPU_HOST=REPLACE_REMOTE_HOST
doing 
doing: export PATH=/work/gpu-simulator/gpgpu-sim/bin:/usr/local/cuda/bin:/usr/local/nvidia/bin:/usr/local/cuda/bin:/usr/local/sbin:/usr/local/bin:/usr/sbin:/usr/bin:/sbin:/bin:/opt/nvidia/nsight-compute/2022.3.0
doing export CUDA_LAUNCH_BLOCKING=1
doing:  /apps/src/..//bin/10.1/release/heartwall-rodinia-2.0-ft ./data/test.avi 1 ./data/result-1.txt


        *** GPGPU-Sim Simulator Version 4.2.0  [build gpgpu-sim_git-commit-13c67115070dc2f0876254a790d0238073ca364a_modified_0.0] ***


GPGPU-Sim PTX: simulation mode 0 (can change with PTX_SIM_MODE_FUNC environment variable:
               1=functional simulation only, 0=detailed performance simulator)
GPGPU-Sim: Configuration options:

-save_embedded_ptx                      0 # saves ptx files embedded in binary as <n>.ptx
-keep                                   0 # keep intermediate files created by GPGPU-Sim when interfacing with external programs
-gpgpu_ptx_save_converted_ptxplus                    0 # Saved converted ptxplus to a file
-gpgpu_occupancy_sm_number                   70 # The SM number to pass to ptxas when getting register usage for computing GPU occupancy. This parameter is required in the config.
-ptx_opcode_latency_int      4,13,4,5,145,21 # Opcode latencies for integers <ADD,MAX,MUL,MAD,DIV,SHFL>Default 1,1,19,25,145,32
-ptx_opcode_latency_fp          4,13,4,5,39 # Opcode latencies for single precision floating points <ADD,MAX,MUL,MAD,DIV>Default 1,1,1,1,30
-ptx_opcode_latency_dp         8,19,8,8,330 # Opcode latencies for double precision floating points <ADD,MAX,MUL,MAD,DIV>Default 8,8,8,8,335
-ptx_opcode_latency_sfu                  100 # Opcode latencies for SFU instructionsDefault 8
-ptx_opcode_latency_tesnor                   64 # Opcode latencies for Tensor instructionsDefault 64
-ptx_opcode_initiation_int          2,2,2,2,8,4 # Opcode initiation intervals for integers <ADD,MAX,MUL,MAD,DIV,SHFL>Default 1,1,4,4,32,4
-ptx_opcode_initiation_fp            2,2,2,2,4 # Opcode initiation intervals for single precision floating points <ADD,MAX,MUL,MAD,DIV>Default 1,1,1,1,5
-ptx_opcode_initiation_dp          4,4,4,4,130 # Opcode initiation intervals for double precision floating points <ADD,MAX,MUL,MAD,DIV>Default 8,8,8,8,130
-ptx_opcode_initiation_sfu                    8 # Opcode initiation intervals for sfu instructionsDefault 8
-ptx_opcode_initiation_tensor                   64 # Opcode initiation intervals for tensor instructionsDefault 64
-cdp_latency         7200,8000,100,12000,1600 # CDP API latency <cudaStreamCreateWithFlags, cudaGetParameterBufferV2_init_perWarp, cudaGetParameterBufferV2_perKernel, cudaLaunchDeviceV2_init_perWarp, cudaLaunchDevicV2_perKernel>Default 7200,8000,100,12000,1600
-network_mode                           2 # Interconnection network mode
-inter_config_file                   mesh # Interconnection network config file
-icnt_in_buffer_limit                  512 # in_buffer_limit
-icnt_out_buffer_limit                  512 # out_buffer_limit
-icnt_subnets                           2 # subnets
-icnt_arbiter_algo                      1 # arbiter_algo
-icnt_verbose                           0 # inct_verbose
-icnt_grant_cycles                      1 # grant_cycles
-gpgpu_ptx_use_cuobjdump                    1 # Use cuobjdump to extract ptx and sass from binaries
-gpgpu_experimental_lib_support                    0 # Try to extract code from cuda libraries [Broken because of unknown cudaGetExportTable]
-checkpoint_option                      0 #  checkpointing flag (0 = no checkpoint)
-checkpoint_kernel                      1 #  checkpointing during execution of which kernel (1- 1st kernel)
-checkpoint_CTA                         0 #  checkpointing after # of CTA (< less than total CTA)
-resume_option                          0 #  resume flag (0 = no resume)
-resume_kernel                          0 #  Resume from which kernel (1= 1st kernel)
-resume_CTA                             0 #  resume from which CTA 
-checkpoint_CTA_t                       0 #  resume from which CTA 
-checkpoint_insn_Y                      0 #  resume from which CTA 
-gpgpu_ptx_convert_to_ptxplus                    0 # Convert SASS (native ISA) to ptxplus and run ptxplus
-gpgpu_ptx_force_max_capability                   70 # Force maximum compute capability
-gpgpu_ptx_inst_debug_to_file                    0 # Dump executed instructions' debug information to file
-gpgpu_ptx_inst_debug_file       inst_debug.txt # Executed instructions' debug output file
-gpgpu_ptx_inst_debug_thread_uid                    1 # Thread UID for executed instructions' debug output
-gpgpu_simd_model                       1 # 1 = post-dominator
-gpgpu_shader_core_pipeline              2048:32 # shader core pipeline config, i.e., {<nthread>:<warpsize>}
-gpgpu_tex_cache:l1  N:4:128:256,L:R:m:N:L,T:512:8,128:2 # per-shader L1 texture cache  (READ-ONLY) config  {<nsets>:<bsize>:<assoc>,<rep>:<wr>:<alloc>:<wr_alloc>,<mshr>:<N>:<merge>,<mq>:<rf>}
-gpgpu_const_cache:l1 N:128:64:8,L:R:f:N:L,S:2:64,4 # per-shader L1 constant memory cache  (READ-ONLY) config  {<nsets>:<bsize>:<assoc>,<rep>:<wr>:<alloc>:<wr_alloc>,<mshr>:<N>:<merge>,<mq>} 
-gpgpu_cache:il1     N:64:128:16,L:R:f:N:L,S:2:48,4 # shader L1 instruction cache config  {<nsets>:<bsize>:<assoc>,<rep>:<wr>:<alloc>:<wr_alloc>,<mshr>:<N>:<merge>,<mq>} 
-gpgpu_cache:dl1     S:4:128:64,L:T:m:L:L,A:512:8,16:0,32 # per-shader L1 data cache config  {<nsets>:<bsize>:<assoc>,<rep>:<wr>:<alloc>:<wr_alloc>,<mshr>:<N>:<merge>,<mq> | none}
-gpgpu_l1_cache_write_ratio                   25 # L1D write ratio
-gpgpu_l1_banks                         4 # The number of L1 cache banks
-gpgpu_l1_banks_byte_interleaving                   32 # l1 banks byte interleaving granularity
-gpgpu_l1_banks_hashing_function                    0 # l1 banks hashing function
-gpgpu_l1_latency                      20 # L1 Hit Latency
-gpgpu_smem_latency                    20 # smem Latency
-gpgpu_cache:dl1PrefL1                 none # per-shader L1 data cache config  {<nsets>:<bsize>:<assoc>,<rep>:<wr>:<alloc>:<wr_alloc>,<mshr>:<N>:<merge>,<mq> | none}
-gpgpu_cache:dl1PrefShared                 none # per-shader L1 data cache config  {<nsets>:<bsize>:<assoc>,<rep>:<wr>:<alloc>:<wr_alloc>,<mshr>:<N>:<merge>,<mq> | none}
-gpgpu_gmem_skip_L1D                    0 # global memory access skip L1D cache (implements -Xptxas -dlcm=cg, default=no skip)
-gpgpu_perfect_mem                      0 # enable perfect memory mode (no cache miss)
-n_regfile_gating_group                    4 # group of lanes that should be read/written together)
-gpgpu_clock_gated_reg_file                    0 # enable clock gated reg file for power calculations
-gpgpu_clock_gated_lanes                    1 # enable clock gated lanes for power calculations
-gpgpu_shader_registers                65536 # Number of registers per shader core. Limits number of concurrent CTAs. (default 8192)
-gpgpu_registers_per_block                65536 # Maximum number of registers per CTA. (default 8192)
-gpgpu_ignore_resources_limitation                    0 # gpgpu_ignore_resources_limitation (default 0)
-gpgpu_shader_cta                      32 # Maximum number of concurrent CTAs in shader (default 32)
-gpgpu_num_cta_barriers                   16 # Maximum number of named barriers per CTA (default 16)
-gpgpu_n_clusters                      80 # number of processing clusters
-gpgpu_n_cores_per_cluster                    1 # number of simd cores per cluster
-gpgpu_n_cluster_ejection_buffer_size                   32 # number of packets in ejection buffer
-gpgpu_n_ldst_response_buffer_size                    2 # number of response packets in ld/st unit ejection buffer
-gpgpu_shmem_per_block                65536 # Size of shared memory per thread block or CTA (default 48kB)
-gpgpu_shmem_size                   98304 # Size of shared memory per shader core (default 16kB)
-gpgpu_shmem_option       0,8,16,32,64,96 # Option list of shared memory sizes
-gpgpu_unified_l1d_size                  128 # Size of unified data cache(L1D + shared memory) in KB
-gpgpu_adaptive_cache_config                    1 # adaptive_cache_config
-gpgpu_shmem_sizeDefault                98304 # Size of shared memory per shader core (default 16kB)
-gpgpu_shmem_size_PrefL1                16384 # Size of shared memory per shader core (default 16kB)
-gpgpu_shmem_size_PrefShared                16384 # Size of shared memory per shader core (default 16kB)
-gpgpu_shmem_num_banks                   32 # Number of banks in the shared memory in each shader core (default 16)
-gpgpu_shmem_limited_broadcast                    0 # Limit shared memory to do one broadcast per cycle (default on)
-gpgpu_shmem_warp_parts                    1 # Number of portions a warp is divided into for shared memory bank conflict check 
-gpgpu_mem_unit_ports                    1 # The number of memory transactions allowed per core cycle
-gpgpu_shmem_warp_parts                    1 # Number of portions a warp is divided into for shared memory bank conflict check 
-gpgpu_warpdistro_shader                   -1 # Specify which shader core to collect the warp size distribution from
-gpgpu_warp_issue_shader                    0 # Specify which shader core to collect the warp issue distribution from
-gpgpu_local_mem_map                    1 # Mapping from local memory space address to simulated GPU physical address space (default = enabled)
-gpgpu_num_reg_banks                   16 # Number of register banks (default = 8)
-gpgpu_reg_bank_use_warp_id                    0 # Use warp ID in mapping registers to banks (default = off)
-gpgpu_sub_core_model                    1 # Sub Core Volta/Pascal model (default = off)
-gpgpu_enable_specialized_operand_collector                    0 # enable_specialized_operand_collector
-gpgpu_operand_collector_num_units_sp                    4 # number of collector units (default = 4)
-gpgpu_operand_collector_num_units_dp                    0 # number of collector units (default = 0)
-gpgpu_operand_collector_num_units_sfu                    4 # number of collector units (default = 4)
-gpgpu_operand_collector_num_units_int                    0 # number of collector units (default = 0)
-gpgpu_operand_collector_num_units_tensor_core                    4 # number of collector units (default = 4)
-gpgpu_operand_collector_num_units_mem                    2 # number of collector units (default = 2)
-gpgpu_operand_collector_num_units_gen                    8 # number of collector units (default = 0)
-gpgpu_operand_collector_num_in_ports_sp                    1 # number of collector unit in ports (default = 1)
-gpgpu_operand_collector_num_in_ports_dp                    0 # number of collector unit in ports (default = 0)
-gpgpu_operand_collector_num_in_ports_sfu                    1 # number of collector unit in ports (default = 1)
-gpgpu_operand_collector_num_in_ports_int                    0 # number of collector unit in ports (default = 0)
-gpgpu_operand_collector_num_in_ports_tensor_core                    1 # number of collector unit in ports (default = 1)
-gpgpu_operand_collector_num_in_ports_mem                    1 # number of collector unit in ports (default = 1)
-gpgpu_operand_collector_num_in_ports_gen                    8 # number of collector unit in ports (default = 0)
-gpgpu_operand_collector_num_out_ports_sp                    1 # number of collector unit in ports (default = 1)
-gpgpu_operand_collector_num_out_ports_dp                    0 # number of collector unit in ports (default = 0)
-gpgpu_operand_collector_num_out_ports_sfu                    1 # number of collector unit in ports (default = 1)
-gpgpu_operand_collector_num_out_ports_int                    0 # number of collector unit in ports (default = 0)
-gpgpu_operand_collector_num_out_ports_tensor_core                    1 # number of collector unit in ports (default = 1)
-gpgpu_operand_collector_num_out_ports_mem                    1 # number of collector unit in ports (default = 1)
-gpgpu_operand_collector_num_out_ports_gen                    8 # number of collector unit in ports (default = 0)
-gpgpu_coalesce_arch                   70 # Coalescing arch (GT200 = 13, Fermi = 20)
-gpgpu_num_sched_per_core                    4 # Number of warp schedulers per core
-gpgpu_max_insn_issue_per_warp                    1 # Max number of instructions that can be issued per warp in one cycle by scheduler (either 1 or 2)
-gpgpu_dual_issue_diff_exec_units                    1 # should dual issue use two different execution unit resources (Default = 1)
-gpgpu_simt_core_sim_order                    1 # Select the simulation order of cores in a cluster (0=Fix, 1=Round-Robin)
-gpgpu_pipeline_widths 4,4,4,4,4,4,4,4,4,4,8,4,4 # Pipeline widths ID_OC_SP,ID_OC_DP,ID_OC_INT,ID_OC_SFU,ID_OC_MEM,OC_EX_SP,OC_EX_DP,OC_EX_INT,OC_EX_SFU,OC_EX_MEM,EX_WB,ID_OC_TENSOR_CORE,OC_EX_TENSOR_CORE
-gpgpu_tensor_core_avail                    1 # Tensor Core Available (default=0)
-gpgpu_num_sp_units                     4 # Number of SP units (default=1)
-gpgpu_num_dp_units                     4 # Number of DP units (default=0)
-gpgpu_num_int_units                    4 # Number of INT units (default=0)
-gpgpu_num_sfu_units                    4 # Number of SF units (default=1)
-gpgpu_num_tensor_core_units                    4 # Number of tensor_core units (default=1)
-gpgpu_num_mem_units                    1 # Number if ldst units (default=1) WARNING: not hooked up to anything
-gpgpu_scheduler                      lrr # Scheduler configuration: < lrr | gto | two_level_active > If two_level_active:<num_active_warps>:<inner_prioritization>:<outer_prioritization>For complete list of prioritization values see shader.h enum scheduler_prioritization_typeDefault: gto
-gpgpu_concurrent_kernel_sm                    0 # Support concurrent kernels on a SM (default = disabled)
-gpgpu_perfect_inst_const_cache                    1 # perfect inst and const cache mode, so all inst and const hits in the cache(default = disabled)
-gpgpu_inst_fetch_throughput                    4 # the number of fetched intruction per warp each cycle
-gpgpu_reg_file_port_throughput                    2 # the number ports of the register file
-specialized_unit_1         0,4,4,4,4,BRA # specialized unit config {<enabled>,<num_units>:<latency>:<initiation>,<ID_OC_SPEC>:<OC_EX_SPEC>,<NAME>}
-specialized_unit_2         0,4,4,4,4,BRA # specialized unit config {<enabled>,<num_units>:<latency>:<initiation>,<ID_OC_SPEC>:<OC_EX_SPEC>,<NAME>}
-specialized_unit_3         0,4,4,4,4,BRA # specialized unit config {<enabled>,<num_units>:<latency>:<initiation>,<ID_OC_SPEC>:<OC_EX_SPEC>,<NAME>}
-specialized_unit_4         0,4,4,4,4,BRA # specialized unit config {<enabled>,<num_units>:<latency>:<initiation>,<ID_OC_SPEC>:<OC_EX_SPEC>,<NAME>}
-specialized_unit_5         0,4,4,4,4,BRA # specialized unit config {<enabled>,<num_units>:<latency>:<initiation>,<ID_OC_SPEC>:<OC_EX_SPEC>,<NAME>}
-specialized_unit_6         0,4,4,4,4,BRA # specialized unit config {<enabled>,<num_units>:<latency>:<initiation>,<ID_OC_SPEC>:<OC_EX_SPEC>,<NAME>}
-specialized_unit_7         0,4,4,4,4,BRA # specialized unit config {<enabled>,<num_units>:<latency>:<initiation>,<ID_OC_SPEC>:<OC_EX_SPEC>,<NAME>}
-specialized_unit_8         0,4,4,4,4,BRA # specialized unit config {<enabled>,<num_units>:<latency>:<initiation>,<ID_OC_SPEC>:<OC_EX_SPEC>,<NAME>}
-gpgpu_perf_sim_memcpy                    1 # Fill the L2 cache on memcpy
-gpgpu_simple_dram_model                    0 # simple_dram_model with fixed latency and BW
-gpgpu_dram_scheduler                    1 # 0 = fifo, 1 = FR-FCFS (defaul)
-gpgpu_dram_partition_queues          64:64:64:64 # i2$:$2d:d2$:$2i
-l2_ideal                               0 # Use a ideal L2 cache that always hit
-gpgpu_cache:dl2     S:32:128:24,L:B:m:L:P,A:192:4,32:0,32 # unified banked L2 data cache config  {<nsets>:<bsize>:<assoc>,<rep>:<wr>:<alloc>:<wr_alloc>,<mshr>:<N>:<merge>,<mq>}
-gpgpu_cache:dl2_texture_only                    0 # L2 cache used for texture only
-gpgpu_n_mem                           32 # number of memory modules (e.g. memory controllers) in gpu
-gpgpu_n_sub_partition_per_mchannel                    2 # number of memory subpartition in each memory module
-gpgpu_n_mem_per_ctrlr                    1 # number of memory chips per memory controller
-gpgpu_memlatency_stat                   14 # track and display latency statistics 0x2 enables MC, 0x4 enables queue logs
-gpgpu_frfcfs_dram_sched_queue_size                   64 # 0 = unlimited (default); # entries per chip
-gpgpu_dram_return_queue_size                  192 # 0 = unlimited (default); # entries per chip
-gpgpu_dram_buswidth                   16 # default = 4 bytes (8 bytes per cycle at DDR)
-gpgpu_dram_burst_length                    2 # Burst length of each DRAM request (default = 4 data bus cycle)
-dram_data_command_freq_ratio                    2 # Frequency ratio between DRAM data bus and command bus (default = 2 times, i.e. DDR)
-gpgpu_dram_timing_opt nbk=16:CCD=1:RRD=3:RCD=12:RAS=28:RP=12:RC=40: CL=12:WL=2:CDLR=3:WR=10:nbkgrp=4:CCDL=2:RTPL=3 # DRAM timing parameters = {nbk:tCCD:tRRD:tRCD:tRAS:tRP:tRC:CL:WL:tCDLR:tWR:nbkgrp:tCCDL:tRTPL}
-gpgpu_l2_rop_latency                  160 # ROP queue latency (default 85)
-dram_latency                         100 # DRAM latency (default 30)
-dram_dual_bus_interface                    1 # dual_bus_interface (default = 0) 
-dram_bnk_indexing_policy                    0 # dram_bnk_indexing_policy (0 = normal indexing, 1 = Xoring with the higher bits) (Default = 0)
-dram_bnkgrp_indexing_policy                    1 # dram_bnkgrp_indexing_policy (0 = take higher bits, 1 = take lower bits) (Default = 0)
-dram_seperate_write_queue_enable                    0 # Seperate_Write_Queue_Enable
-dram_write_queue_size             32:28:16 # Write_Queue_Size
-dram_elimnate_rw_turnaround                    0 # elimnate_rw_turnaround i.e set tWTR and tRTW = 0
-icnt_flit_size                        40 # icnt_flit_size
-gpgpu_mem_addr_mapping dramid@8;00000000.00000000.00000000.00000000.0000RRRR.RRRRRRRR.RBBBCCCB.CCCSSSSS # mapping memory address to dram model {dramid@<start bit>;<memory address map>}
-gpgpu_mem_addr_test                    0 # run sweep test to check address mapping for aliased address
-gpgpu_mem_address_mask                    1 # 0 = old addressing mask, 1 = new addressing mask, 2 = new add. mask + flipped bank sel and chip sel bits
-gpgpu_memory_partition_indexing                    2 # 0 = no indexing, 1 = bitwise xoring, 2 = IPoly, 3 = custom indexing
-accelwattch_xml_file accelwattch_sass_sim.xml # AccelWattch XML file
-power_simulation_enabled                    0 # Turn on power simulator (1=On, 0=Off)
-power_per_cycle_dump                    0 # Dump detailed power output each cycle
-hw_perf_file_name            hw_perf.csv # Hardware Performance Statistics file
-hw_perf_bench_name                       # Kernel Name in Hardware Performance Statistics file
-power_simulation_mode                    0 # Switch performance counter input for power simulation (0=Sim, 1=HW, 2=HW-Sim Hybrid)
-dvfs_enabled                           0 # Turn on DVFS for power model
-aggregate_power_stats                    0 # Accumulate power across all kernels
-accelwattch_hybrid_perfsim_L1_RH                    0 # Get L1 Read Hits for Accelwattch-Hybrid from Accel-Sim
-accelwattch_hybrid_perfsim_L1_RM                    0 # Get L1 Read Misses for Accelwattch-Hybrid from Accel-Sim
-accelwattch_hybrid_perfsim_L1_WH                    0 # Get L1 Write Hits for Accelwattch-Hybrid from Accel-Sim
-accelwattch_hybrid_perfsim_L1_WM                    0 # Get L1 Write Misses for Accelwattch-Hybrid from Accel-Sim
-accelwattch_hybrid_perfsim_L2_RH                    0 # Get L2 Read Hits for Accelwattch-Hybrid from Accel-Sim
-accelwattch_hybrid_perfsim_L2_RM                    0 # Get L2 Read Misses for Accelwattch-Hybrid from Accel-Sim
-accelwattch_hybrid_perfsim_L2_WH                    0 # Get L2 Write Hits for Accelwattch-Hybrid from Accel-Sim
-accelwattch_hybrid_perfsim_L2_WM                    0 # Get L2 Write Misses for Accelwattch-Hybrid from Accel-Sim
-accelwattch_hybrid_perfsim_CC_ACC                    0 # Get Constant Cache Acesses for Accelwattch-Hybrid from Accel-Sim
-accelwattch_hybrid_perfsim_SHARED_ACC                    0 # Get Shared Memory Acesses for Accelwattch-Hybrid from Accel-Sim
-accelwattch_hybrid_perfsim_DRAM_RD                    0 # Get DRAM Reads for Accelwattch-Hybrid from Accel-Sim
-accelwattch_hybrid_perfsim_DRAM_WR                    0 # Get DRAM Writes for Accelwattch-Hybrid from Accel-Sim
-accelwattch_hybrid_perfsim_NOC                    0 # Get Interconnect Acesses for Accelwattch-Hybrid from Accel-Sim
-accelwattch_hybrid_perfsim_PIPE_DUTY                    0 # Get Pipeline Duty Cycle Acesses for Accelwattch-Hybrid from Accel-Sim
-accelwattch_hybrid_perfsim_NUM_SM_IDLE                    0 # Get Number of Idle SMs for Accelwattch-Hybrid from Accel-Sim
-accelwattch_hybrid_perfsim_CYCLES                    0 # Get Executed Cycles for Accelwattch-Hybrid from Accel-Sim
-accelwattch_hybrid_perfsim_VOLTAGE                    0 # Get Chip Voltage for Accelwattch-Hybrid from Accel-Sim
-power_trace_enabled                    0 # produce a file for the power trace (1=On, 0=Off)
-power_trace_zlevel                     6 # Compression level of the power trace output log (0=no comp, 9=highest)
-steady_power_levels_enabled                    0 # produce a file for the steady power levels (1=On, 0=Off)
-steady_state_definition                  8:4 # allowed deviation:number of samples
-gpgpu_max_cycle                        0 # terminates gpu simulation early (0 = no limit)
-gpgpu_max_insn                         0 # terminates gpu simulation early (0 = no limit)
-gpgpu_max_cta                          0 # terminates gpu simulation early (0 = no limit)
-gpgpu_max_completed_cta                    0 # terminates gpu simulation early (0 = no limit)
-gpgpu_runtime_stat                   500 # display runtime statistics such as dram utilization {<freq>:<flag>}
-liveness_message_freq                    1 # Minimum number of seconds between simulation liveness messages (0 = always print)
-gpgpu_compute_capability_major                    7 # Major compute capability version number
-gpgpu_compute_capability_minor                    0 # Minor compute capability version number
-gpgpu_flush_l1_cache                    1 # Flush L1 cache at the end of each kernel call
-gpgpu_flush_l2_cache                    0 # Flush L2 cache at the end of each kernel call
-gpgpu_deadlock_detect                    1 # Stop the simulation at deadlock (1=on (default), 0=off)
-gpgpu_ptx_instruction_classification                    0 # if enabled will classify ptx instruction types per kernel (Max 255 kernels now)
-gpgpu_ptx_sim_mode                     0 # Select between Performance (default) or Functional simulation (1)
-gpgpu_clock_domains 1447.0:1447.0:1447.0:850.0 # Clock Domain Frequencies in MhZ {<Core Clock>:<ICNT Clock>:<L2 Clock>:<DRAM Clock>}
-gpgpu_max_concurrent_kernel                  128 # maximum kernels that can run concurrently on GPU, set this value according to max resident grids for your compute capability
-gpgpu_cflog_interval                    0 # Interval between each snapshot in control flow logger
-visualizer_enabled                     0 # Turn on visualizer output (1=On, 0=Off)
-visualizer_outputfile                 NULL # Specifies the output log file for visualizer
-visualizer_zlevel                      6 # Compression level of the visualizer output log (0=no comp, 9=highest)
-gpgpu_stack_size_limit                 1024 # GPU thread stack size
-gpgpu_heap_size_limit              8388608 # GPU malloc heap size 
-gpgpu_runtime_sync_depth_limit                    2 # GPU device runtime synchronize depth
-gpgpu_runtime_pending_launch_count_limit                 2048 # GPU device runtime pending launch count
-trace_enabled                          0 # Turn on traces
-trace_components                    none # comma seperated list of traces to enable. Complete list found in trace_streams.tup. Default none
-trace_sampling_core                    0 # The core which is printed using CORE_DPRINTF. Default 0
-trace_sampling_memory_partition                   -1 # The memory partition which is printed using MEMPART_DPRINTF. Default -1 (i.e. all)
-enable_ptx_file_line_stats                    1 # Turn on PTX source line statistic profiling. (1 = On)
-ptx_line_stats_filename gpgpu_inst_stats.txt # Output file for PTX source line statistics.
-gpgpu_kernel_launch_latency                 5000 # Kernel launch latency in cycles. Default: 0
-gpgpu_cdp_enabled                      0 # Turn on CDP
-gpgpu_TB_launch_latency 9173d4fb0eb317e58f3a1618a9d60e50  /apps/bin/10.1/release/heartwall-rodinia-2.0-ft
Extracting PTX file and ptxas options    1: heartwall-rodinia-2.1.sm_30.ptx -arch=sm_30
Extracting PTX file and ptxas options    2: heartwall-rodinia-2.2.sm_35.ptx -arch=sm_35
Extracting PTX file and ptxas options    3: heartwall-rodinia-2.3.sm_50.ptx -arch=sm_50
Extracting PTX file and ptxas options    4: heartwall-rodinia-2.4.sm_60.ptx -arch=sm_60
Extracting PTX file and ptxas options    5: heartwall-rodinia-2.5.sm_62.ptx -arch=sm_62
Extracting PTX file and ptxas options    6: heartwall-rodinia-2.6.sm_70.ptx -arch=sm_70
Extracting PTX file and ptxas options    7: heartwall-rodinia-2.7.sm_75.ptx -arch=sm_75
                   0 # thread block launch latency in cycles. Default: 0
DRAM Timing Options:
nbk                                    16 # number of banks
CCD                                     1 # column to column delay
RRD                                     3 # minimal delay between activation of rows in different banks
RCD                                    12 # row to column delay
RAS                                    28 # time needed to activate row
RP                                     12 # time needed to precharge (deactivate) row
RC                                     40 # row cycle time
CDLR                                    3 # switching from write to read (changes tWTR)
WR                                     10 # last data-in to row precharge
CL                                     12 # CAS latency
WL                                      2 # Write latency
nbkgrp                                  4 # number of bank groups
CCDL                                    2 # column to column delay between accesses to different bank groups
RTPL                                    3 # read to precharge delay between accesses to different bank groups
Total number of memory sub partition = 64
addr_dec_mask[CHIP]  = 0000000000001f00 	high:13 low:8
addr_dec_mask[BK]    = 00000000000e2000 	high:20 low:13
addr_dec_mask[ROW]   = 00000001fff00000 	high:33 low:20
addr_dec_mask[COL]   = 000000000001c0ff 	high:17 low:0
addr_dec_mask[BURST] = 000000000000001f 	high:5 low:0
sub_partition_id_mask = 0000000000002000
GPGPU-Sim uArch: clock freqs: 1447000000.000000:1447000000.000000:1447000000.000000:850000000.000000
GPGPU-Sim uArch: clock periods: 0.00000000069108500346:0.00000000069108500346:0.00000000069108500346:0.00000000117647058824
*** Initializing Memory Statistics ***
GPGPU-Sim uArch: performance model initialization complete.
self exe links to: /apps/bin/10.1/release/heartwall-rodinia-2.0-ft
self exe links to: /apps/bin/10.1/release/heartwall-rodinia-2.0-ft
10.1
GPGPU-Sim PTX: __cudaRegisterFatBinary, fat_cubin_handle = 1, filename=default
self exe links to: /apps/bin/10.1/release/heartwall-rodinia-2.0-ft
Running md5sum using "md5sum /apps/bin/10.1/release/heartwall-rodinia-2.0-ft "
self exe links to: /apps/bin/10.1/release/heartwall-rodinia-2.0-ft
Extracting specific PTX file named heartwall-rodinia-2.1.sm_30.ptx 
Extracting specific PTX file named heartwall-rodinia-2.2.sm_35.ptx 
Extracting specific PTX file named heartwall-rodinia-2.3.sm_50.ptx 
Extracting specific PTX file named heartwall-rodinia-2.4.sm_60.ptx 
Extracting specific PTX file named heartwall-rodinia-2.5.sm_62.ptx 
Extracting specific PTX file named heartwall-rodinia-2.6.sm_70.ptx 
Extracting specific PTX file named heartwall-rodinia-2.7.sm_75.ptx 
GPGPU-Sim PTX: __cudaRegisterFunction _Z6kernelv : hostFun 0x0x55879d006420, fat_cubin_handle = 1
GPGPU-Sim PTX: Parsing heartwall-rodinia-2.1.sm_30.ptx
GPGPU-Sim PTX: allocating constant region for "d_common_change" from 0x100 to 0x110 (global memory space) 1
GPGPU-Sim PTX: allocating constant region for "d_common" from 0x180 to 0x388 (global memory space) 2
GPGPU-Sim PTX: allocating constant region for "d_unique" from 0x400 to 0x23e0 (global memory space) 3
GPGPU-Sim PTX: allocating shared region for "_ZZ6kernelvE14in_partial_sum" from 0x0 to 0xcc (shared memory space)
GPGPU-Sim PTX: allocating shared region for "_ZZ6kernelvE18in_sqr_partial_sum" from 0x100 to 0x1cc (shared memory space)
GPGPU-Sim PTX: allocating shared region for "_ZZ6kernelvE12in_final_sum" from 0x1cc to 0x1d0 (shared memory space)
GPGPU-Sim PTX: allocating shared region for "_ZZ6kernelvE16in_sqr_final_sum" from 0x1d0 to 0x1d4 (shared memory space)
GPGPU-Sim PTX: allocating shared region for "_ZZ6kernelvE6denomT" from 0x1d4 to 0x1d8 (shared memory space)
GPGPU-Sim PTX: allocating shared region for "_ZZ6kernelvE11par_max_val" from 0x200 to 0x40c (shared memory space)
GPGPU-Sim PTX: allocating shared region for "_ZZ6kernelvE11par_max_coo" from 0x480 to 0x68c (shared memory space)
GPGPU-Sim PTX: allocating shared region for "_ZZ6kernelvE13d_in_mod_temp" from 0x700 to 0x2fa4 (shared memory space)
GPGPU-Sim PTX: instruction assembly for function '_Z6kernelv'...   done.
GPGPU-Sim PTX: finished parsing EMBEDDED .ptx file heartwall-rodinia-2.1.sm_30.ptx
GPGPU-Sim PTX: Parsing heartwall-rodinia-2.2.sm_35.ptx
GPGPU-Sim PTX: Warning d_common_change was declared previous at heartwall-rodinia-2.1.sm_30.ptx:14 skipping new declaration
GPGPU-Sim PTX: Warning d_common was declared previous at heartwall-rodinia-2.1.sm_30.ptx:15 skipping new declaration
GPGPU-Sim PTX: Warning d_unique was declared previous at heartwall-rodinia-2.1.sm_30.ptx:16 skipping new declaration
GPGPU-Sim PTX: Warning %p0 was declared previous at heartwall-rodinia-2.1.sm_30.ptx:30 skipping new declaration
GPGPU-Sim PTX: Warning %p1 was declared previous at heartwall-rodinia-2.1.sm_30.ptx:30 skipping new declaration
GPGPU-Sim PTX: Warning %p2 was declared previous at heartwall-rodinia-2.1.sm_30.ptx:30 skipping new declaration
GPGPU-Sim PTX: Warning %p3 was declared previous at heartwall-rodinia-2.1.sm_30.ptx:30 skipping new declaration
GPGPU-Sim PTX: Warning %p4 was declared previous at heartwall-rodinia-2.1.sm_30.ptx:30 skipping new declaration
GPGPU-Sim PTX: Warning %p5 was declared previous at heartwall-rodinia-2.1.sm_30.ptx:30 skipping new declaration
GPGPU-Sim PTX: Warning %p6 was declared previous at heartwall-rodinia-2.1.sm_30.ptx:30 skipping new declaration
GPGPU-Sim PTX: Warning %p7 was declared previous at heartwall-rodinia-2.1.sm_30.ptx:30 skipping new declaration
GPGPU-Sim PTX: Warning %p8 was declared previous at heartwall-rodinia-2.1.sm_30.ptx:30 skipping new declaration
GPGPU-Sim PTX: Warning %p9 was declared previous at heartwall-rodinia-2.1.sm_30.ptx:30 skipping new declaration
GPGPU-Sim PTX: Warning %p10 was declared previous at heartwall-rodinia-2.1.sm_30.ptx:30 skipping new declaration
GPGPU-Sim PTX: Warning %p11 was declared previous at heartwall-rodinia-2.1.sm_30.ptx:30 skipping new declaration
GPGPU-Sim PTX: Warning %p12 was declared previous at heartwall-rodinia-2.1.sm_30.ptx:30 skipping new declaration
GPGPU-Sim PTX: Warning %p13 was declared previous at heartwall-rodinia-2.1.sm_30.ptx:30 skipping new declaration
GPGPU-Sim PTX: Warning %p14 was declared previous at heartwall-rodinia-2.1.sm_30.ptx:30 skipping new declaration
GPGPU-Sim PTX: Warning %p15 was declared previous at heartwall-rodinia-2.1.sm_30.ptx:30 skipping new declaration
GPGPU-Sim PTX: Warning %p16 was declared previous at heartwall-rodinia-2.1.sm_30.ptx:30 skipping new declaration
GPGPU-Sim PTX: Warning %p17 was declared previous at heartwall-rodinia-2.1.sm_30.ptx:30 skipping new declaration
GPGPU-Sim PTX: Warning %p18 was declared previous at heartwall-rodinia-2.1.sm_30.ptx:30 skipping new declaration
GPGPU-Sim PTX: Warning %p19 was declared previous at heartwall-rodinia-2.1.sm_30.ptx:30 skipping new declaration
GPGPU-Sim PTX: Warning %p20 was declared previous at heartwall-rodinia-2.1.sm_30.ptx:30 skipping new declaration
GPGPU-Sim PTX: Warning %p21 was declared previous at heartwall-rodinia-2.1.sm_30.ptx:30 skipping new declaration
GPGPU-Sim PTX: Warning %p22 was declared previous at heartwall-rodinia-2.1.sm_30.ptx:30 skipping new declaration
GPGPU-Sim PTX: Warning %p23 was declared previous at heartwall-rodinia-2.1.sm_30.ptx:30 skipping new declaration
GPGPU-Sim PTX: Warning %p24 was declared previous at heartwall-rodinia-2.1.sm_30.ptx:30 skipping new declaration
GPGPU-Sim PTX: Warning %p25 was declared previous at heartwall-rodinia-2.1.sm_30.ptx:30 skipping new declaration
GPGPU-Sim PTX: Warning %p26 was declared previous at heartwall-rodinia-2.1.sm_30.ptx:30 skipping new declaration
GPGPU-Sim PTX: Warning %p27 was declared previous at heartwall-rodinia-2.1.sm_30.ptx:30 skipping new declaration
GPGPU-Sim PTX: Warning %p28 was declared previous at heartwall-rodinia-2.1.sm_30.ptx:30 skipping new declaration
GPGPU-Sim PTX: Warning %p29 was declared previous at heartwall-rodinia-2.1.sm_30.ptx:30 skipping new declaration
GPGPU-Sim PTX: Warning %p30 was declared previous at heartwall-rodinia-2.1.sm_30.ptx:30 skipping new declaration
GPGPU-Sim PTX: Warning %p31 was declared previous at heartwall-rodinia-2.1.sm_30.ptx:30 skipping new declaration
GPGPU-Sim PTX: Warning %p32 was declared previous at heartwall-rodinia-2.1.sm_30.ptx:30 skipping new declaration
GPGPU-Sim PTX: Warning %p33 was declared previous at heartwall-rodinia-2.1.sm_30.ptx:30 skipping new declaration
GPGPU-Sim PTX: Warning %p34 was declared previous at heartwall-rodinia-2.1.sm_30.ptx:30 skipping new declaration
GPGPU-Sim PTX: Warning %p35 was declared previous at heartwall-rodinia-2.1.sm_30.ptx:30 skipping new declaration
GPGPU-Sim PTX: Warning %p36 was declared previous at heartwall-rodinia-2.1.sm_30.ptx:30 skipping new declaration
GPGPU-Sim PTX: Warning %p37 was declared previous at heartwall-rodinia-2.1.sm_30.ptx:30 skipping new declaration
GPGPU-Sim PTX: Warning %p38 was declared previous at heartwall-rodinia-2.1.sm_30.ptx:30 skipping new declaration
GPGPU-Sim PTX: Warning %p39 was declared previous at heartwall-rodinia-2.1.sm_30.ptx:30 skipping new declaration
GPGPU-Sim PTX: Warning %p40 was declared previous at heartwall-rodinia-2.1.sm_30.ptx:30 skipping new declaration
GPGPU-Sim PTX: Warning %p41 was declared previous at heartwall-rodinia-2.1.sm_30.ptx:30 skipping new declaration
GPGPU-Sim PTX: Warning %p42 was declared previous at heartwall-rodinia-2.1.sm_30.ptx:30 skipping new declaration
GPGPU-Sim PTX: Warning %p43 was declared previous at heartwall-rodinia-2.1.sm_30.ptx:30 skipping new declaration
GPGPU-Sim PTX: Warning %p44 was declared previous at heartwall-rodinia-2.1.sm_30.ptx:30 skipping new declaration
GPGPU-Sim PTX: Warning %p45 was declared previous at heartwall-rodinia-2.1.sm_30.ptx:30 skipping new declaration
GPGPU-Sim PTX: Warning %p46 was declared previous at heartwall-rodinia-2.1.sm_30.ptx:30 skipping new declaration
GPGPU-Sim PTX: Warning %p47 was declared previous at heartwall-rodinia-2.1.sm_30.ptx:30 skipping new declaration
GPGPU-Sim PTX: Warning %p48 was declared previous at heartwall-rodinia-2.1.sm_30.ptx:30 skipping new declaration
GPGPU-Sim PTX: Warning %p49 was declared previous at heartwall-rodinia-2.1.sm_30.ptx:30 skipping new declaration
GPGPU-Sim PTX: Warning %p50 was declared previous at heartwall-rodinia-2.1.sm_30.ptx:30 skipping new declaration
GPGPU-Sim PTX: Warning %p51 was declared previous at heartwall-rodinia-2.1.sm_30.ptx:30 skipping new declaration
GPGPU-Sim PTX: Warning %p52 was declared previous at heartwall-rodinia-2.1.sm_30.ptx:30 skipping new declaration
GPGPU-Sim PTX: Warning %p53 was declared previous at heartwall-rodinia-2.1.sm_30.ptx:30 skipping new declaration
GPGPU-Sim PTX: Warning %p54 was declared previous at heartwall-rodinia-2.1.sm_30.ptx:30 skipping new declaration
GPGPU-Sim PTX: Warning %p55 was declared previous at heartwall-rodinia-2.1.sm_30.ptx:30 skipping new declaration
GPGPU-Sim PTX: Warning %p56 was declared previous at heartwall-rodinia-2.1.sm_30.ptx:30 skipping new declaration
GPGPU-Sim PTX: Warning %p57 was declared previous at heartwall-rodinia-2.1.sm_30.ptx:30 skipping new declaration
GPGPU-Sim PTX: Warning %p58 was declared previous at heartwall-rodinia-2.1.sm_30.ptx:30 skipping new declaration
GPGPU-Sim PTX: Warning %p59 was declared previous at heartwall-rodinia-2.1.sm_30.ptx:30 skipping new declaration
GPGPU-Sim PTX: Warning %p60 was declared previous at heartwall-rodinia-2.1.sm_30.ptx:30 skipping new declaration
GPGPU-Sim PTX: Warning %p61 was declared previous at heartwall-rodinia-2.1.sm_30.ptx:30 skipping new declaration
GPGPU-Sim PTX: Warning %p62 was declared previous at heartwall-rodinia-2.1.sm_30.ptx:30 skipping new declaration
GPGPU-Sim PTX: Warning %p63 was declared previous at heartwall-rodinia-2.1.sm_30.ptx:30 skipping new declaration
GPGPU-Sim PTX: Warning %p64 was declared previous at heartwall-rodinia-2.1.sm_30.ptx:30 skipping new declaration
GPGPU-Sim PTX: Warning %p65 was declared previous at heartwall-rodinia-2.1.sm_30.ptx:30 skipping new declaration
GPGPU-Sim PTX: Warning %p66 was declared previous at heartwall-rodinia-2.1.sm_30.ptx:30 skipping new declaration
GPGPU-Sim PTX: Warning %p67 was declared previous at heartwall-rodinia-2.1.sm_30.ptx:30 skipping new declaration
GPGPU-Sim PTX: Warning %p68 was declared previous at heartwall-rodinia-2.1.sm_30.ptx:30 skipping new declaration
GPGPU-Sim PTX: Warning %p69 was declared previous at heartwall-rodinia-2.1.sm_30.ptx:30 skipping new declaration
GPGPU-Sim PTX: Warning %p70 was declared previous at heartwall-rodinia-2.1.sm_30.ptx:30 skipping new declaration
GPGPU-Sim PTX: Warning %p71 was declared previous at heartwall-rodinia-2.1.sm_30.ptx:30 skipping new declaration
GPGPU-Sim PTX: Warning %p72 was declared previous at heartwall-rodinia-2.1.sm_30.ptx:30 skipping new declaration
GPGPU-Sim PTX: Warning %p73 was declared previous at heartwall-rodinia-2.1.sm_30.ptx:30 skipping new declaration
GPGPU-Sim PTX: Warning %p74 was declared previous at heartwall-rodinia-2.1.sm_30.ptx:30 skipping new declaration
GPGPU-Sim PTX: Warning %p75 was declared previous at heartwall-rodinia-2.1.sm_30.ptx:30 skipping new declaration
GPGPU-Sim PTX: Warning %p76 was declared previous at heartwall-rodinia-2.1.sm_30.ptx:30 skipping new declaration
GPGPU-Sim PTX: Warning %p77 was declared previous at heartwall-rodinia-2.1.sm_30.ptx:30 skipping new declaration
GPGPU-Sim PTX: Warning %p78 was declared previous at heartwall-rodinia-2.1.sm_30.ptx:30 skipping new declaration
GPGPU-Sim PTX: Warning %p79 was declared previous at heartwall-rodinia-2.1.sm_30.ptx:30 skipping new declaration
GPGPU-Sim PTX: Warning %p80 was declared previous at heartwall-rodinia-2.1.sm_30.ptx:30 skipping new declaration
GPGPU-Sim PTX: Warning %p81 was declared previous at heartwall-rodinia-2.1.sm_30.ptx:30 skipping new declaration
GPGPU-Sim PTX: Warning %p82 was declared previous at heartwall-rodinia-2.1.sm_30.ptx:30 skipping new declaration
GPGPU-Sim PTX: Warning %p83 was declared previous at heartwall-rodinia-2.1.sm_30.ptx:30 skipping new declaration
GPGPU-Sim PTX: Warning %p84 was declared previous at heartwall-rodinia-2.1.sm_30.ptx:30 skipping new declaration
GPGPU-Sim PTX: Warning %p85 was declared previous at heartwall-rodinia-2.1.sm_30.ptx:30 skipping new declaration
GPGPU-Sim PTX: Warning %p86 was declared previous at heartwall-rodinia-2.1.sm_30.ptx:30 skipping new declaration
GPGPU-Sim PTX: Warning %p87 was declared previous at heartwall-rodinia-2.1.sm_30.ptx:30 skipping new declaration
GPGPU-Sim PTX: Warning %p88 was declared previous at heartwall-rodinia-2.1.sm_30.ptx:30 skipping new declaration
GPGPU-Sim PTX: Warning %p89 was declared previous at heartwall-rodinia-2.1.sm_30.ptx:30 skipping new declaration
GPGPU-Sim PTX: Warning %p90 was declared previous at heartwall-rodinia-2.1.sm_30.ptx:30 skipping new declaration
GPGPU-Sim PTX: Warning %p91 was declared previous at heartwall-rodinia-2.1.sm_30.ptx:30 skipping new declaration
GPGPU-Sim PTX: Warning %p92 was declared previous at heartwall-rodinia-2.1.sm_30.ptx:30 skipping new declaration
GPGPU-Sim PTX: Warning %p93 was declared previous at heartwall-rodinia-2.1.sm_30.ptx:30 skipping new declaration
GPGPU-Sim PTX: Warning %p94 was declared previous at heartwall-rodinia-2.1.sm_30.ptx:30 skipping new declaration
GPGPU-Sim PTX: Warning %p95 was declared previous at heartwall-rodinia-2.1.sm_30.ptx:30 skipping new declaration
GPGPU-Sim PTX: Warning %p96 was declared previous at heartwall-rodinia-2.1.sm_30.ptx:30 skipping new declaration
GPGPU-Sim PTX: Warning %p97 was declared previous at heartwall-rodinia-2.1.sm_30.ptx:30 skipping new declaration
GPGPU-Sim PTX: Warning %p98 was declared previous at heartwall-rodinia-2.1.sm_30.ptx:30 skipping new declaration
GPGPU-Sim PTX: Warning %p99 was declared previous at heartwall-rodinia-2.1.sm_30.ptx:30 skipping new declaration
GPGPU-Sim PTX: Warning %p100 was declared previous at heartwall-rodinia-2.1.sm_30.ptx:30 skipping new declaration
GPGPU-Sim PTX: Warning %p101 was declared previous at heartwall-rodinia-2.1.sm_30.ptx:30 skipping new declaration
GPGPU-Sim PTX: Warning %p102 was declared previous at heartwall-rodinia-2.1.sm_30.ptx:30 skipping new declaration
GPGPU-Sim PTX: Warning %p103 was declared previous at heartwall-rodinia-2.1.sm_30.ptx:30 skipping new declaration
GPGPU-Sim PTX: Warning %p104 was declared previous at heartwall-rodinia-2.1.sm_30.ptx:30 skipping new declaration
GPGPU-Sim PTX: Warning %p105 was declared previous at heartwall-rodinia-2.1.sm_30.ptx:30 skipping new declaration
GPGPU-Sim PTX: Warning %p106 was declared previous at heartwall-rodinia-2.1.sm_30.ptx:30 skipping new declaration
GPGPU-Sim PTX: Warning %p107 was declared previous at heartwall-rodinia-2.1.sm_30.ptx:30 skipping new declaration
GPGPU-Sim PTX: Warning %p108 was declared previous at heartwall-rodinia-2.1.sm_30.ptx:30 skipping new declaration
GPGPU-Sim PTX: Warning %p109 was declared previous at heartwall-rodinia-2.1.sm_30.ptx:30 skipping new declaration
GPGPU-Sim PTX: Warning %p110 was declared previous at heartwall-rodinia-2.1.sm_30.ptx:30 skipping new declaration
GPGPU-Sim PTX: Warning %p111 was declared previous at heartwall-rodinia-2.1.sm_30.ptx:30 skipping new declaration
GPGPU-Sim PTX: Warning %p112 was declared previous at heartwall-rodinia-2.1.sm_30.ptx:30 skipping new declaration
GPGPU-Sim PTX: Warning %p113 was declared previous at heartwall-rodinia-2.1.sm_30.ptx:30 skipping new declaration
GPGPU-Sim PTX: Warning %p114 was declared previous at heartwall-rodinia-2.1.sm_30.ptx:30 skipping new declaration
GPGPU-Sim PTX: Warning %p115 was declared previous at heartwall-rodinia-2.1.sm_30.ptx:30 skipping new declaration
GPGPU-Sim PTX: Warning %p116 was declared previous at heartwall-rodinia-2.1.sm_30.ptx:30 skipping new declaration
GPGPU-Sim PTX: Warning %p117 was declared previous at heartwall-rodinia-2.1.sm_30.ptx:30 skipping new declaration
GPGPU-Sim PTX: Warning %p118 was declared previous at heartwall-rodinia-2.1.sm_30.ptx:30 skipping new declaration
GPGPU-Sim PTX: Warning %p119 was declared previous at heartwall-rodinia-2.1.sm_30.ptx:30 skipping new declaration
GPGPU-Sim PTX: Warning %p120 was declared previous at heartwall-rodinia-2.1.sm_30.ptx:30 skipping new declaration
GPGPU-Sim PTX: Warning %p121 was declared previous at heartwall-rodinia-2.1.sm_30.ptx:30 skipping new declaration
GPGPU-Sim PTX: Warning %p122 was declared previous at heartwall-rodinia-2.1.sm_30.ptx:30 skipping new declaration
GPGPU-Sim PTX: Warning %p123 was declared previous at heartwall-rodinia-2.1.sm_30.ptx:30 skipping new declaration
GPGPU-Sim PTX: Warning %p124 was declared previous at heartwall-rodinia-2.1.sm_30.ptx:30 skipping new declaration
GPGPU-Sim PTX: Warning %p125 was declared previous at heartwall-rodinia-2.1.sm_30.ptx:30 skipping new declaration
GPGPU-Sim PTX: Warning %p126 was declared previous at heartwall-rodinia-2.1.sm_30.ptx:30 skipping new declaration
GPGPU-Sim PTX: Warning %p127 was declared previous at heartwall-rodinia-2.1.sm_30.ptx:30 skipping new declaration
GPGPU-Sim PTX: Warning %p128 was declared previous at heartwall-rodinia-2.1.sm_30.ptx:30 skipping new declaration
GPGPU-Sim PTX: Warning %p129 was declared previous at heartwall-rodinia-2.1.sm_30.ptx:30 skipping new declaration
GPGPU-Sim PTX: Warning %p130 was declared previous at heartwall-rodinia-2.1.sm_30.ptx:30 skipping new declaration
GPGPU-Sim PTX: Warning %p131 was declared previous at heartwall-rodinia-2.1.sm_30.ptx:30 skipping new declaration
GPGPU-Sim PTX: Warning %p132 was declared previous at heartwall-rodinia-2.1.sm_30.ptx:30 skipping new declaration
GPGPU-Sim PTX: Warning %p133 was declared previous at heartwall-rodinia-2.1.sm_30.ptx:30 skipping new declaration
GPGPU-Sim PTX: Warning %p134 was declared previous at heartwall-rodinia-2.1.sm_30.ptx:30 skipping new declaration
GPGPU-Sim PTX: Warning %p135 was declared previous at heartwall-rodinia-2.1.sm_30.ptx:30 skipping new declaration
GPGPU-Sim PTX: Warning %p136 was declared previous at heartwall-rodinia-2.1.sm_30.ptx:30 skipping new declaration
GPGPU-Sim PTX: Warning %p137 was declared previous at heartwall-rodinia-2.1.sm_30.ptx:30 skipping new declaration
GPGPU-Sim PTX: Warning %p138 was declared previous at heartwall-rodinia-2.1.sm_30.ptx:30 skipping new declaration
GPGPU-Sim PTX: Warning %p139 was declared previous at heartwall-rodinia-2.1.sm_30.ptx:30 skipping new declaration
GPGPU-Sim PTX: Warning %p140 was declared previous at heartwall-rodinia-2.1.sm_30.ptx:30 skipping new declaration
GPGPU-Sim PTX: Warning %p141 was declared previous at heartwall-rodinia-2.1.sm_30.ptx:30 skipping new declaration
GPGPU-Sim PTX: Warning %p142 was declared previous at heartwall-rodinia-2.1.sm_30.ptx:30 skipping new declaration
GPGPU-Sim PTX: Warning %p143 was declared previous at heartwall-rodinia-2.1.sm_30.ptx:30 skipping new declaration
GPGPU-Sim PTX: Warning %p144 was declared previous at heartwall-rodinia-2.1.sm_30.ptx:30 skipping new declaration
GPGPU-Sim PTX: Warning %p145 was declared previous at heartwall-rodinia-2.1.sm_30.ptx:30 skipping new declaration
GPGPU-Sim PTX: Warning %p146 was declared previous at heartwall-rodinia-2.1.sm_30.ptx:30 skipping new declaration
GPGPU-Sim PTX: Warning %p147 was declared previous at heartwall-rodinia-2.1.sm_30.ptx:30 skipping new declaration
GPGPU-Sim PTX: Warning %p148 was declared previous at heartwall-rodinia-2.1.sm_30.ptx:30 skipping new declaration
GPGPU-Sim PTX: Warning %p149 was declared previous at heartwall-rodinia-2.1.sm_30.ptx:30 skipping new declaration
GPGPU-Sim PTX: Warning %p150 was declared previous at heartwall-rodinia-2.1.sm_30.ptx:30 skipping new declaration
GPGPU-Sim PTX: Warning %p151 was declared previous at heartwall-rodinia-2.1.sm_30.ptx:30 skipping new declaration
GPGPU-Sim PTX: Warning %p152 was declared previous at heartwall-rodinia-2.1.sm_30.ptx:30 skipping new declaration
GPGPU-Sim PTX: Warning %p153 was declared previous at heartwall-rodinia-2.1.sm_30.ptx:30 skipping new declaration
GPGPU-Sim PTX: Warning %p154 was declared previous at heartwall-rodinia-2.1.sm_30.ptx:30 skipping new declaration
GPGPU-Sim PTX: Warning %p155 was declared previous at heartwall-rodinia-2.1.sm_30.ptx:30 skipping new declaration
GPGPU-Sim PTX: Warning %p156 was declared previous at heartwall-rodinia-2.1.sm_30.ptx:30 skipping new declaration
GPGPU-Sim PTX: Warning %p157 was declared previous at heartwall-rodinia-2.1.sm_30.ptx:30 skipping new declaration
GPGPU-Sim PTX: Warning %p158 was declared previous at heartwall-rodinia-2.1.sm_30.ptx:30 skipping new declaration
GPGPU-Sim PTX: Warning %p159 was declared previous at heartwall-rodinia-2.1.sm_30.ptx:30 skipping new declaration
GPGPU-Sim PTX: Warning %p160 was declared previous at heartwall-rodinia-2.1.sm_30.ptx:30 skipping new declaration
GPGPU-Sim PTX: Warning %p161 was declared previous at heartwall-rodinia-2.1.sm_30.ptx:30 skipping new declaration
GPGPU-Sim PTX: Warning %p162 was declared previous at heartwall-rodinia-2.1.sm_30.ptx:30 skipping new declaration
GPGPU-Sim PTX: Warning %p163 was declared previous at heartwall-rodinia-2.1.sm_30.ptx:30 skipping new declaration
GPGPU-Sim PTX: Warning %p164 was declared previous at heartwall-rodinia-2.1.sm_30.ptx:30 skipping new declaration
GPGPU-Sim PTX: Warning %p165 was declared previous at heartwall-rodinia-2.1.sm_30.ptx:30 skipping new declaration
GPGPU-Sim PTX: Warning %p166 was declared previous at heartwall-rodinia-2.1.sm_30.ptx:30 skipping new declaration
GPGPU-Sim PTX: Warning %p167 was declared previous at heartwall-rodinia-2.1.sm_30.ptx:30 skipping new declaration
GPGPU-Sim PTX: Warning %p168 was declared previous at heartwall-rodinia-2.1.sm_30.ptx:30 skipping new declaration
GPGPU-Sim PTX: Warning %p169 was declared previous at heartwall-rodinia-2.1.sm_30.ptx:30 skipping new declaration
GPGPU-Sim PTX: Warning %p170 was declared previous at heartwall-rodinia-2.1.sm_30.ptx:30 skipping new declaration
GPGPU-Sim PTX: Warning %p171 was declared previous at heartwall-rodinia-2.1.sm_30.ptx:30 skipping new declaration
GPGPU-Sim PTX: Warning %p172 was declared previous at heartwall-rodinia-2.1.sm_30.ptx:30 skipping new declaration
GPGPU-Sim PTX: Warning %p173 was declared previous at heartwall-rodinia-2.1.sm_30.ptx:30 skipping new declaration
GPGPU-Sim PTX: Warning %p174 was declared previous at heartwall-rodinia-2.1.sm_30.ptx:30 skipping new declaration
GPGPU-Sim PTX: Warning %p175 was declared previous at heartwall-rodinia-2.1.sm_30.ptx:30 skipping new declaration
GPGPU-Sim PTX: Warning %p176 was declared previous at heartwall-rodinia-2.1.sm_30.ptx:30 skipping new declaration
GPGPU-Sim PTX: Warning %p177 was declared previous at heartwall-rodinia-2.1.sm_30.ptx:30 skipping new declaration
GPGPU-Sim PTX: Warning %p178 was declared previous at heartwall-rodinia-2.1.sm_30.ptx:30 skipping new declaration
GPGPU-Sim PTX: Warning %p179 was declared previous at heartwall-rodinia-2.1.sm_30.ptx:30 skipping new declaration
GPGPU-Sim PTX: Warning %p180 was declared previous at heartwall-rodinia-2.1.sm_30.ptx:30 skipping new declaration
GPGPU-Sim PTX: Warning %p181 was declared previous at heartwall-rodinia-2.1.sm_30.ptx:30 skipping new declaration
GPGPU-Sim PTX: Warning %p182 was declared previous at heartwall-rodinia-2.1.sm_30.ptx:30 skipping new declaration
GPGPU-Sim PTX: Warning %p183 was declared previous at heartwall-rodinia-2.1.sm_30.ptx:30 skipping new declaration
GPGPU-Sim PTX: Warning %p184 was declared previous at heartwall-rodinia-2.1.sm_30.ptx:30 skipping new declaration
GPGPU-Sim PTX: Warning %p185 was declared previous at heartwall-rodinia-2.1.sm_30.ptx:30 skipping new declaration
GPGPU-Sim PTX: Warning %p186 was declared previous at heartwall-rodinia-2.1.sm_30.ptx:30 skipping new declaration
GPGPU-Sim PTX: Warning %p187 was declared previous at heartwall-rodinia-2.1.sm_30.ptx:30 skipping new declaration
GPGPU-Sim PTX: Warning %p188 was declared previous at heartwall-rodinia-2.1.sm_30.ptx:30 skipping new declaration
GPGPU-Sim PTX: Warning %p189 was declared previous at heartwall-rodinia-2.1.sm_30.ptx:30 skipping new declaration
GPGPU-Sim PTX: Warning %p190 was declared previous at heartwall-rodinia-2.1.sm_30.ptx:30 skipping new declaration
GPGPU-Sim PTX: Warning %p191 was declared previous at heartwall-rodinia-2.1.sm_30.ptx:30 skipping new declaration
GPGPU-Sim PTX: Warning %p192 was declared previous at heartwall-rodinia-2.1.sm_30.ptx:30 skipping new declaration
GPGPU-Sim PTX: Warning %p193 was declared previous at heartwall-rodinia-2.1.sm_30.ptx:30 skipping new declaration
GPGPU-Sim PTX: Warning %p194 was declared previous at heartwall-rodinia-2.1.sm_30.ptx:30 skipping new declaration
GPGPU-Sim PTX: Warning %p195 was declared previous at heartwall-rodinia-2.1.sm_30.ptx:30 skipping new declaration
GPGPU-Sim PTX: Warning %p196 was declared previous at heartwall-rodinia-2.1.sm_30.ptx:30 skipping new declaration
GPGPU-Sim PTX: Warning %p197 was declared previous at heartwall-rodinia-2.1.sm_30.ptx:30 skipping new declaration
GPGPU-Sim PTX: Warning %p198 was declared previous at heartwall-rodinia-2.1.sm_30.ptx:30 skipping new declaration
GPGPU-Sim PTX: Warning %p199 was declared previous at heartwall-rodinia-2.1.sm_30.ptx:30 skipping new declaration
GPGPU-Sim PTX: Warning %p200 was declared previous at heartwall-rodinia-2.1.sm_30.ptx:30 skipping new declaration
GPGPU-Sim PTX: Warning %p201 was declared previous at heartwall-rodinia-2.1.sm_30.ptx:30 skipping new declaration
GPGPU-Sim PTX: Warning %p202 was declared previous at heartwall-rodinia-2.1.sm_30.ptx:30 skipping new declaration
GPGPU-Sim PTX: Warning %p203 was declared previous at heartwall-rodinia-2.1.sm_30.ptx:30 skipping new declaration
GPGPU-Sim PTX: Warning %p204 was declared previous at heartwall-rodinia-2.1.sm_30.ptx:30 skipping new declaration
GPGPU-Sim PTX: Warning %p205 was declared previous at heartwall-rodinia-2.1.sm_30.ptx:30 skipping new declaration
GPGPU-Sim PTX: Warning %p206 was declared previous at heartwall-rodinia-2.1.sm_30.ptx:30 skipping new declaration
GPGPU-Sim PTX: Warning %p207 was declared previous at heartwall-rodinia-2.1.sm_30.ptx:30 skipping new declaration
GPGPU-Sim PTX: Warning %p208 was declared previous at heartwall-rodinia-2.1.sm_30.ptx:30 skipping new declaration
GPGPU-Sim PTX: Warning %p209 was declared previous at heartwall-rodinia-2.1.sm_30.ptx:30 skipping new declaration
GPGPU-Sim PTX: Warning %p210 was declared previous at heartwall-rodinia-2.1.sm_30.ptx:30 skipping new declaration
GPGPU-Sim PTX: Warning %p211 was declared previous at heartwall-rodinia-2.1.sm_30.ptx:30 skipping new declaration
GPGPU-Sim PTX: Warning %p212 was declared previous at heartwall-rodinia-2.1.sm_30.ptx:30 skipping new declaration
GPGPU-Sim PTX: Warning %p213 was declared previous at heartwall-rodinia-2.1.sm_30.ptx:30 skipping new declaration
GPGPU-Sim PTX: Warning %p214 was declared previous at heartwall-rodinia-2.1.sm_30.ptx:30 skipping new declaration
GPGPU-Sim PTX: Warning %p215 was declared previous at heartwall-rodinia-2.1.sm_30.ptx:30 skipping new declaration
GPGPU-Sim PTX: Warning %p216 was declared previous at heartwall-rodinia-2.1.sm_30.ptx:30 skipping new declaration
GPGPU-Sim PTX: Warning %p217 was declared previous at heartwall-rodinia-2.1.sm_30.ptx:30 skipping new declaration
GPGPU-Sim PTX: Warning %p218 was declared previous at heartwall-rodinia-2.1.sm_30.ptx:30 skipping new declaration
GPGPU-Sim PTX: Warning %p219 was declared previous at heartwall-rodinia-2.1.sm_30.ptx:30 skipping new declaration
GPGPU-Sim PTX: Warning %p220 was declared previous at heartwall-rodinia-2.1.sm_30.ptx:30 skipping new declaration
GPGPU-Sim PTX: Warning %p221 was declared previous at heartwall-rodinia-2.1.sm_30.ptx:30 skipping new declaration
GPGPU-Sim PTX: Warning %p222 was declared previous at heartwall-rodinia-2.1.sm_30.ptx:30 skipping new declaration
GPGPU-Sim PTX: Warning %p223 was declared previous at heartwall-rodinia-2.1.sm_30.ptx:30 skipping new declaration
GPGPU-Sim PTX: Warning %p224 was declared previous at heartwall-rodinia-2.1.sm_30.ptx:30 skipping new declaration
GPGPU-Sim PTX: Warning %p225 was declared previous at heartwall-rodinia-2.1.sm_30.ptx:30 skipping new declaration
GPGPU-Sim PTX: Warning %p226 was declared previous at heartwall-rodinia-2.1.sm_30.ptx:30 skipping new declaration
GPGPU-Sim PTX: Warning %p227 was declared previous at heartwall-rodinia-2.1.sm_30.ptx:30 skipping new declaration
GPGPU-Sim PTX: Warning %p228 was declared previous at heartwall-rodinia-2.1.sm_30.ptx:30 skipping new declaration
GPGPU-Sim PTX: Warning %p229 was declared previous at heartwall-rodinia-2.1.sm_30.ptx:30 skipping new declaration
GPGPU-Sim PTX: Warning %p230 was declared previous at heartwall-rodinia-2.1.sm_30.ptx:30 skipping new declaration
GPGPU-Sim PTX: Warning %p231 was declared previous at heartwall-rodinia-2.1.sm_30.ptx:30 skipping new declaration
GPGPU-Sim PTX: Warning %p232 was declared previous at heartwall-rodinia-2.1.sm_30.ptx:30 skipping new declaration
GPGPU-Sim PTX: Warning %p233 was declared previous at heartwall-rodinia-2.1.sm_30.ptx:30 skipping new declaration
GPGPU-Sim PTX: Warning %p234 was declared previous at heartwall-rodinia-2.1.sm_30.ptx:30 skipping new declaration
GPGPU-Sim PTX: Warning %p235 was declared previous at heartwall-rodinia-2.1.sm_30.ptx:30 skipping new declaration
GPGPU-Sim PTX: Warning %p236 was declared previous at heartwall-rodinia-2.1.sm_30.ptx:30 skipping new declaration
GPGPU-Sim PTX: Warning %p237 was declared previous at heartwall-rodinia-2.1.sm_30.ptx:30 skipping new declaration
GPGPU-Sim PTX: Warning %p238 was declared previous at heartwall-rodinia-2.1.sm_30.ptx:30 skipping new declaration
GPGPU-Sim PTX: Warning %p239 was declared previous at heartwall-rodinia-2.1.sm_30.ptx:30 skipping new declaration
GPGPU-Sim PTX: Warning %p240 was declared previous at heartwall-rodinia-2.1.sm_30.ptx:30 skipping new declaration
GPGPU-Sim PTX: Warning %p241 was declared previous at heartwall-rodinia-2.1.sm_30.ptx:30 skipping new declaration
GPGPU-Sim PTX: Warning %p242 was declared previous at heartwall-rodinia-2.1.sm_30.ptx:30 skipping new declaration
GPGPU-Sim PTX: Warning %p243 was declared previous at heartwall-rodinia-2.1.sm_30.ptx:30 skipping new declaration
GPGPU-Sim PTX: Warning %p244 was declared previous at heartwall-rodinia-2.1.sm_30.ptx:30 skipping new declaration
GPGPU-Sim PTX: Warning %p245 was declared previous at heartwall-rodinia-2.1.sm_30.ptx:30 skipping new declaration
GPGPU-Sim PTX: Warning %p246 was declared previous at heartwall-rodinia-2.1.sm_30.ptx:30 skipping new declaration
GPGPU-Sim PTX: Warning %p247 was declared previous at heartwall-rodinia-2.1.sm_30.ptx:30 skipping new declaration
GPGPU-Sim PTX: Warning %p248 was declared previous at heartwall-rodinia-2.1.sm_30.ptx:30 skipping new declaration
GPGPU-Sim PTX: Warning %p249 was declared previous at heartwall-rodinia-2.1.sm_30.ptx:30 skipping new declaration
GPGPU-Sim PTX: Warning %p250 was declared previous at heartwall-rodinia-2.1.sm_30.ptx:30 skipping new declaration
GPGPU-Sim PTX: Warning %p251 was declared previous at heartwall-rodinia-2.1.sm_30.ptx:30 skipping new declaration
GPGPU-Sim PTX: Warning %p252 was declared previous at heartwall-rodinia-2.1.sm_30.ptx:30 skipping new declaration
GPGPU-Sim PTX: Warning %p253 was declared previous at heartwall-rodinia-2.1.sm_30.ptx:30 skipping new declaration
GPGPU-Sim PTX: Warning %p254 was declared previous at heartwall-rodinia-2.1.sm_30.ptx:30 skipping new declaration
GPGPU-Sim PTX: Warning %p255 was declared previous at heartwall-rodinia-2.1.sm_30.ptx:30 skipping new declaration
GPGPU-Sim PTX: Warning %p256 was declared previous at heartwall-rodinia-2.1.sm_30.ptx:30 skipping new declaration
GPGPU-Sim PTX: Warning %p257 was declared previous at heartwall-rodinia-2.1.sm_30.ptx:30 skipping new declaration
GPGPU-Sim PTX: Warning %p258 was declared previous at heartwall-rodinia-2.1.sm_30.ptx:30 skipping new declaration
GPGPU-Sim PTX: Warning %p259 was declared previous at heartwall-rodinia-2.1.sm_30.ptx:30 skipping new declaration
GPGPU-Sim PTX: Warning %p260 was declared previous at heartwall-rodinia-2.1.sm_30.ptx:30 skipping new declaration
GPGPU-Sim PTX: Warning %p261 was declared previous at heartwall-rodinia-2.1.sm_30.ptx:30 skipping new declaration
GPGPU-Sim PTX: Warning %p262 was declared previous at heartwall-rodinia-2.1.sm_30.ptx:30 skipping new declaration
GPGPU-Sim PTX: Warning %p263 was declared previous at heartwall-rodinia-2.1.sm_30.ptx:30 skipping new declaration
GPGPU-Sim PTX: Warning %p264 was declared previous at heartwall-rodinia-2.1.sm_30.ptx:30 skipping new declaration
GPGPU-Sim PTX: Warning %p265 was declared previous at heartwall-rodinia-2.1.sm_30.ptx:30 skipping new declaration
GPGPU-Sim PTX: Warning %p266 was declared previous at heartwall-rodinia-2.1.sm_30.ptx:30 skipping new declaration
GPGPU-Sim PTX: Warning %p267 was declared previous at heartwall-rodinia-2.1.sm_30.ptx:30 skipping new declaration
GPGPU-Sim PTX: Warning %p268 was declared previous at heartwall-rodinia-2.1.sm_30.ptx:30 skipping new declaration
GPGPU-Sim PTX: Warning %p269 was declared previous at heartwall-rodinia-2.1.sm_30.ptx:30 skipping new declaration
GPGPU-Sim PTX: Warning %p270 was declared previous at heartwall-rodinia-2.1.sm_30.ptx:30 skipping new declaration
GPGPU-Sim PTX: Warning %p271 was declared previous at heartwall-rodinia-2.1.sm_30.ptx:30 skipping new declaration
GPGPU-Sim PTX: Warning %p272 was declared previous at heartwall-rodinia-2.1.sm_30.ptx:30 skipping new declaration
GPGPU-Sim PTX: Warning %p273 was declared previous at heartwall-rodinia-2.1.sm_30.ptx:30 skipping new declaration
GPGPU-Sim PTX: Warning %p274 was declared previous at heartwall-rodinia-2.1.sm_30.ptx:30 skipping new declaration
GPGPU-Sim PTX: Warning %p275 was declared previous at heartwall-rodinia-2.1.sm_30.ptx:30 skipping new declaration
GPGPU-Sim PTX: Warning %p276 was declared previous at heartwall-rodinia-2.1.sm_30.ptx:30 skipping new declaration
GPGPU-Sim PTX: Warning %p277 was declared previous at heartwall-rodinia-2.1.sm_30.ptx:30 skipping new declaration
GPGPU-Sim PTX: Warning %p278 was declared previous at heartwall-rodinia-2.1.sm_30.ptx:30 skipping new declaration
GPGPU-Sim PTX: Warning %p279 was declared previous at heartwall-rodinia-2.1.sm_30.ptx:30 skipping new declaration
GPGPU-Sim PTX: Warning %p280 was declared previous at heartwall-rodinia-2.1.sm_30.ptx:30 skipping new declaration
GPGPU-Sim PTX: Warning %p281 was declared previous at heartwall-rodinia-2.1.sm_30.ptx:30 skipping new declaration
GPGPU-Sim PTX: Warning %p282 was declared previous at heartwall-rodinia-2.1.sm_30.ptx:30 skipping new declaration
GPGPU-Sim PTX: Warning %p283 was declared previous at heartwall-rodinia-2.1.sm_30.ptx:30 skipping new declaration
GPGPU-Sim PTX: Warning %p284 was declared previous at heartwall-rodinia-2.1.sm_30.ptx:30 skipping new declaration
GPGPU-Sim PTX: Warning %p285 was declared previous at heartwall-rodinia-2.1.sm_30.ptx:30 skipping new declaration
GPGPU-Sim PTX: Warning %p286 was declared previous at heartwall-rodinia-2.1.sm_30.ptx:30 skipping new declaration
GPGPU-Sim PTX: Warning %p287 was declared previous at heartwall-rodinia-2.1.sm_30.ptx:30 skipping new declaration
GPGPU-Sim PTX: Warning %p288 was declared previous at heartwall-rodinia-2.1.sm_30.ptx:30 skipping new declaration
GPGPU-Sim PTX: Warning %p289 was declared previous at heartwall-rodinia-2.1.sm_30.ptx:30 skipping new declaration
GPGPU-Sim PTX: Warning %p290 was declared previous at heartwall-rodinia-2.1.sm_30.ptx:30 skipping new declaration
GPGPU-Sim PTX: Warning %p291 was declared previous at heartwall-rodinia-2.1.sm_30.ptx:30 skipping new declaration
GPGPU-Sim PTX: Warning %p292 was declared previous at heartwall-rodinia-2.1.sm_30.ptx:30 skipping new declaration
GPGPU-Sim PTX: Warning %p293 was declared previous at heartwall-rodinia-2.1.sm_30.ptx:30 skipping new declaration
GPGPU-Sim PTX: Warning %p294 was declared previous at heartwall-rodinia-2.1.sm_30.ptx:30 skipping new declaration
GPGPU-Sim PTX: Warning %p295 was declared previous at heartwall-rodinia-2.1.sm_30.ptx:30 skipping new declaration
GPGPU-Sim PTX: Warning %p296 was declared previous at heartwall-rodinia-2.1.sm_30.ptx:30 skipping new declaration
GPGPU-Sim PTX: Warning %p297 was declared previous at heartwall-rodinia-2.1.sm_30.ptx:30 skipping new declaration
GPGPU-Sim PTX: Warning %p298 was declared previous at heartwall-rodinia-2.1.sm_30.ptx:30 skipping new declaration
GPGPU-Sim PTX: Warning %p299 was declared previous at heartwall-rodinia-2.1.sm_30.ptx:30 skipping new declaration
GPGPU-Sim PTX: Warning %p300 was declared previous at heartwall-rodinia-2.1.sm_30.ptx:30 skipping new declaration
GPGPU-Sim PTX: Warning %p301 was declared previous at heartwall-rodinia-2.1.sm_30.ptx:30 skipping new declaration
GPGPU-Sim PTX: Warning %p302 was declared previous at heartwall-rodinia-2.1.sm_30.ptx:30 skipping new declaration
GPGPU-Sim PTX: Warning %p303 was declared previous at heartwall-rodinia-2.1.sm_30.ptx:30 skipping new declaration
GPGPU-Sim PTX: Warning %p304 was declared previous at heartwall-rodinia-2.1.sm_30.ptx:30 skipping new declaration
GPGPU-Sim PTX: Warning %p305 was declared previous at heartwall-rodinia-2.1.sm_30.ptx:30 skipping new declaration
GPGPU-Sim PTX: Warning %p306 was declared previous at heartwall-rodinia-2.1.sm_30.ptx:30 skipping new declaration
GPGPU-Sim PTX: Warning %p307 was declared previous at heartwall-rodinia-2.1.sm_30.ptx:30 skipping new declaration
GPGPU-Sim PTX: Warning %p308 was declared previous at heartwall-rodinia-2.1.sm_30.ptx:30 skipping new declaration
GPGPU-Sim PTX: Warning %p309 was declared previous at heartwall-rodinia-2.1.sm_30.ptx:30 skipping new declaration
GPGPU-Sim PTX: Warning %p310 was declared previous at heartwall-rodinia-2.1.sm_30.ptx:30 skipping new declaration
GPGPU-Sim PTX: Warning %p311 was declared previous at heartwall-rodinia-2.1.sm_30.ptx:30 skipping new declaration
GPGPU-Sim PTX: Warning %p312 was declared previous at heartwall-rodinia-2.1.sm_30.ptx:30 skipping new declaration
GPGPU-Sim PTX: Warning %p313 was declared previous at heartwall-rodinia-2.1.sm_30.ptx:30 skipping new declaration
GPGPU-Sim PTX: Warning %p314 was declared previous at heartwall-rodinia-2.1.sm_30.ptx:30 skipping new declaration
GPGPU-Sim PTX: Warning %p315 was declared previous at heartwall-rodinia-2.1.sm_30.ptx:30 skipping new declaration
GPGPU-Sim PTX: Warning %p316 was declared previous at heartwall-rodinia-2.1.sm_30.ptx:30 skipping new declaration
GPGPU-Sim PTX: Warning %p317 was declared previous at heartwall-rodinia-2.1.sm_30.ptx:30 skipping new declaration
GPGPU-Sim PTX: Warning %p318 was declared previous at heartwall-rodinia-2.1.sm_30.ptx:30 skipping new declaration
GPGPU-Sim PTX: Warning %p319 was declared previous at heartwall-rodinia-2.1.sm_30.ptx:30 skipping new declaration
GPGPU-Sim PTX: Warning %p320 was declared previous at heartwall-rodinia-2.1.sm_30.ptx:30 skipping new declaration
GPGPU-Sim PTX: Warning %p321 was declared previous at heartwall-rodinia-2.1.sm_30.ptx:30 skipping new declaration
GPGPU-Sim PTX: Warning %p322 was declared previous at heartwall-rodinia-2.1.sm_30.ptx:30 skipping new declaration
GPGPU-Sim PTX: Warning %p323 was declared previous at heartwall-rodinia-2.1.sm_30.ptx:30 skipping new declaration
GPGPU-Sim PTX: Warning %p324 was declared previous at heartwall-rodinia-2.1.sm_30.ptx:30 skipping new declaration
GPGPU-Sim PTX: Warning %p325 was declared previous at heartwall-rodinia-2.1.sm_30.ptx:30 skipping new declaration
GPGPU-Sim PTX: Warning %p326 was declared previous at heartwall-rodinia-2.1.sm_30.ptx:30 skipping new declaration
GPGPU-Sim PTX: Warning %p327 was declared previous at heartwall-rodinia-2.1.sm_30.ptx:30 skipping new declaration
GPGPU-Sim PTX: Warning %p328 was declared previous at heartwall-rodinia-2.1.sm_30.ptx:30 skipping new declaration
GPGPU-Sim PTX: Warning %p329 was declared previous at heartwall-rodinia-2.1.sm_30.ptx:30 skipping new declaration
GPGPU-Sim PTX: Warning %p330 was declared previous at heartwall-rodinia-2.1.sm_30.ptx:30 skipping new declaration
GPGPU-Sim PTX: Warning %p331 was declared previous at heartwall-rodinia-2.1.sm_30.ptx:30 skipping new declaration
GPGPU-Sim PTX: Warning %p332 was declared previous at heartwall-rodinia-2.1.sm_30.ptx:30 skipping new declaration
GPGPU-Sim PTX: Warning %p333 was declared previous at heartwall-rodinia-2.1.sm_30.ptx:30 skipping new declaration
GPGPU-Sim PTX: Warning %p334 was declared previous at heartwall-rodinia-2.1.sm_30.ptx:30 skipping new declaration
GPGPU-Sim PTX: Warning %p335 was declared previous at heartwall-rodinia-2.1.sm_30.ptx:30 skipping new declaration
GPGPU-Sim PTX: Warning %p336 was declared previous at heartwall-rodinia-2.1.sm_30.ptx:30 skipping new declaration
GPGPU-Sim PTX: Warning %p337 was declared previous at heartwall-rodinia-2.1.sm_30.ptx:30 skipping new declaration
GPGPU-Sim PTX: Warning %p338 was declared previous at heartwall-rodinia-2.1.sm_30.ptx:30 skipping new declaration
GPGPU-Sim PTX: Warning %p339 was declared previous at heartwall-rodinia-2.1.sm_30.ptx:30 skipping new declaration
GPGPU-Sim PTX: Warning %p340 was declared previous at heartwall-rodinia-2.1.sm_30.ptx:30 skipping new declaration
GPGPU-Sim PTX: Warning %p341 was declared previous at heartwall-rodinia-2.1.sm_30.ptx:30 skipping new declaration
GPGPU-Sim PTX: Warning %p342 was declared previous at heartwall-rodinia-2.1.sm_30.ptx:30 skipping new declaration
GPGPU-Sim PTX: Warning %p343 was declared previous at heartwall-rodinia-2.1.sm_30.ptx:30 skipping new declaration
GPGPU-Sim PTX: Warning %p344 was declared previous at heartwall-rodinia-2.1.sm_30.ptx:30 skipping new declaration
GPGPU-Sim PTX: Warning %p345 was declared previous at heartwall-rodinia-2.1.sm_30.ptx:30 skipping new declaration
GPGPU-Sim PTX: Warning %p346 was declared previous at heartwall-rodinia-2.1.sm_30.ptx:30 skipping new declaration
GPGPU-Sim PTX: Warning %p347 was declared previous at heartwall-rodinia-2.1.sm_30.ptx:30 skipping new declaration
GPGPU-Sim PTX: Warning %p348 was declared previous at heartwall-rodinia-2.1.sm_30.ptx:30 skipping new declaration
GPGPU-Sim PTX: Warning %p349 was declared previous at heartwall-rodinia-2.1.sm_30.ptx:30 skipping new declaration
GPGPU-Sim PTX: Warning %p350 was declared previous at heartwall-rodinia-2.1.sm_30.ptx:30 skipping new declaration
GPGPU-Sim PTX: Warning %p351 was declared previous at heartwall-rodinia-2.1.sm_30.ptx:30 skipping new declaration
GPGPU-Sim PTX: Warning %p352 was declared previous at heartwall-rodinia-2.1.sm_30.ptx:30 skipping new declaration
GPGPU-Sim PTX: Warning %p353 was declared previous at heartwall-rodinia-2.1.sm_30.ptx:30 skipping new declaration
GPGPU-Sim PTX: Warning %p354 was declared previous at heartwall-rodinia-2.1.sm_30.ptx:30 skipping new declaration
GPGPU-Sim PTX: Warning %p355 was declared previous at heartwall-rodinia-2.1.sm_30.ptx:30 skipping new declaration
GPGPU-Sim PTX: Warning %p356 was declared previous at heartwall-rodinia-2.1.sm_30.ptx:30 skipping new declaration
GPGPU-Sim PTX: Warning %p357 was declared previous at heartwall-rodinia-2.1.sm_30.ptx:30 skipping new declaration
GPGPU-Sim PTX: Warning %p358 was declared previous at heartwall-rodinia-2.1.sm_30.ptx:30 skipping new declaration
GPGPU-Sim PTX: Warning %p359 was declared previous at heartwall-rodinia-2.1.sm_30.ptx:30 skipping new declaration
GPGPU-Sim PTX: Warning %p360 was declared previous at heartwall-rodinia-2.1.sm_30.ptx:30 skipping new declaration
GPGPU-Sim PTX: Warning %p361 was declared previous at heartwall-rodinia-2.1.sm_30.ptx:30 skipping new declaration
GPGPU-Sim PTX: Warning %p362 was declared previous at heartwall-rodinia-2.1.sm_30.ptx:30 skipping new declaration
GPGPU-Sim PTX: Warning %p363 was declared previous at heartwall-rodinia-2.1.sm_30.ptx:30 skipping new declaration
GPGPU-Sim PTX: Warning %p364 was declared previous at heartwall-rodinia-2.1.sm_30.ptx:30 skipping new declaration
GPGPU-Sim PTX: Warning %p365 was declared previous at heartwall-rodinia-2.1.sm_30.ptx:30 skipping new declaration
GPGPU-Sim PTX: Warning %p366 was declared previous at heartwall-rodinia-2.1.sm_30.ptx:30 skipping new declaration
GPGPU-Sim PTX: Warning %p367 was declared previous at heartwall-rodinia-2.1.sm_30.ptx:30 skipping new declaration
GPGPU-Sim PTX: Warning %p368 was declared previous at heartwall-rodinia-2.1.sm_30.ptx:30 skipping new declaration
GPGPU-Sim PTX: Warning %p369 was declared previous at heartwall-rodinia-2.1.sm_30.ptx:30 skipping new declaration
GPGPU-Sim PTX: Warning %p370 was declared previous at heartwall-rodinia-2.1.sm_30.ptx:30 skipping new declaration
GPGPU-Sim PTX: Warning %p371 was declared previous at heartwall-rodinia-2.1.sm_30.ptx:30 skipping new declaration
GPGPU-Sim PTX: Warning %p372 was declared previous at heartwall-rodinia-2.1.sm_30.ptx:30 skipping new declaration
GPGPU-Sim PTX: Warning %p373 was declared previous at heartwall-rodinia-2.1.sm_30.ptx:30 skipping new declaration
GPGPU-Sim PTX: Warning %p374 was declared previous at heartwall-rodinia-2.1.sm_30.ptx:30 skipping new declaration
GPGPU-Sim PTX: Warning %p375 was declared previous at heartwall-rodinia-2.1.sm_30.ptx:30 skipping new declaration
GPGPU-Sim PTX: Warning %p376 was declared previous at heartwall-rodinia-2.1.sm_30.ptx:30 skipping new declaration
GPGPU-Sim PTX: Warning %p377 was declared previous at heartwall-rodinia-2.1.sm_30.ptx:30 skipping new declaration
GPGPU-Sim PTX: Warning %p378 was declared previous at heartwall-rodinia-2.1.sm_30.ptx:30 skipping new declaration
GPGPU-Sim PTX: Warning %p379 was declared previous at heartwall-rodinia-2.1.sm_30.ptx:30 skipping new declaration
GPGPU-Sim PTX: Warning %p380 was declared previous at heartwall-rodinia-2.1.sm_30.ptx:30 skipping new declaration
GPGPU-Sim PTX: Warning %p381 was declared previous at heartwall-rodinia-2.1.sm_30.ptx:30 skipping new declaration
GPGPU-Sim PTX: Warning %p382 was declared previous at heartwall-rodinia-2.1.sm_30.ptx:30 skipping new declaration
GPGPU-Sim PTX: Warning %p383 was declared previous at heartwall-rodinia-2.1.sm_30.ptx:30 skipping new declaration
GPGPU-Sim PTX: Warning %p384 was declared previous at heartwall-rodinia-2.1.sm_30.ptx:30 skipping new declaration
GPGPU-Sim PTX: Warning %p385 was declared previous at heartwall-rodinia-2.1.sm_30.ptx:30 skipping new declaration
GPGPU-Sim PTX: Warning %p386 was declared previous at heartwall-rodinia-2.1.sm_30.ptx:30 skipping new declaration
GPGPU-Sim PTX: Warning %p387 was declared previous at heartwall-rodinia-2.1.sm_30.ptx:30 skipping new declaration
GPGPU-Sim PTX: Warning %p388 was declared previous at heartwall-rodinia-2.1.sm_30.ptx:30 skipping new declaration
GPGPU-Sim PTX: Warning %p389 was declared previous at heartwall-rodinia-2.1.sm_30.ptx:30 skipping new declaration
GPGPU-Sim PTX: Warning %p390 was declared previous at heartwall-rodinia-2.1.sm_30.ptx:30 skipping new declaration
GPGPU-Sim PTX: Warning %p391 was declared previous at heartwall-rodinia-2.1.sm_30.ptx:30 skipping new declaration
GPGPU-Sim PTX: Warning %p392 was declared previous at heartwall-rodinia-2.1.sm_30.ptx:30 skipping new declaration
GPGPU-Sim PTX: Warning %p393 was declared previous at heartwall-rodinia-2.1.sm_30.ptx:30 skipping new declaration
GPGPU-Sim PTX: Warning %p394 was declared previous at heartwall-rodinia-2.1.sm_30.ptx:30 skipping new declaration
GPGPU-Sim PTX: Warning %p395 was declared previous at heartwall-rodinia-2.1.sm_30.ptx:30 skipping new declaration
GPGPU-Sim PTX: Warning %p396 was declared previous at heartwall-rodinia-2.1.sm_30.ptx:30 skipping new declaration
GPGPU-Sim PTX: Warning %p397 was declared previous at heartwall-rodinia-2.1.sm_30.ptx:30 skipping new declaration
GPGPU-Sim PTX: Warning %p398 was declared previous at heartwall-rodinia-2.1.sm_30.ptx:30 skipping new declaration
GPGPU-Sim PTX: Warning %p399 was declared previous at heartwall-rodinia-2.1.sm_30.ptx:30 skipping new declaration
GPGPU-Sim PTX: Warning %p400 was declared previous at heartwall-rodinia-2.1.sm_30.ptx:30 skipping new declaration
GPGPU-Sim PTX: Warning %p401 was declared previous at heartwall-rodinia-2.1.sm_30.ptx:30 skipping new declaration
GPGPU-Sim PTX: Warning %p402 was declared previous at heartwall-rodinia-2.1.sm_30.ptx:30 skipping new declaration
GPGPU-Sim PTX: Warning %p403 was declared previous at heartwall-rodinia-2.1.sm_30.ptx:30 skipping new declaration
GPGPU-Sim PTX: Warning %p404 was declared previous at heartwall-rodinia-2.1.sm_30.ptx:30 skipping new declaration
GPGPU-Sim PTX: Warning %p405 was declared previous at heartwall-rodinia-2.1.sm_30.ptx:30 skipping new declaration
GPGPU-Sim PTX: Warning %p406 was declared previous at heartwall-rodinia-2.1.sm_30.ptx:30 skipping new declaration
GPGPU-Sim PTX: Warning %p407 was declared previous at heartwall-rodinia-2.1.sm_30.ptx:30 skipping new declaration
GPGPU-Sim PTX: Warning %p408 was declared previous at heartwall-rodinia-2.1.sm_30.ptx:30 skipping new declaration
GPGPU-Sim PTX: Warning %p409 was declared previous at heartwall-rodinia-2.1.sm_30.ptx:30 skipping new declaration
GPGPU-Sim PTX: Warning %p410 was declared previous at heartwall-rodinia-2.1.sm_30.ptx:30 skipping new declaration
GPGPU-Sim PTX: Warning %p411 was declared previous at heartwall-rodinia-2.1.sm_30.ptx:30 skipping new declaration
GPGPU-Sim PTX: Warning %p412 was declared previous at heartwall-rodinia-2.1.sm_30.ptx:30 skipping new declaration
GPGPU-Sim PTX: Warning %p413 was declared previous at heartwall-rodinia-2.1.sm_30.ptx:30 skipping new declaration
GPGPU-Sim PTX: Warning %p414 was declared previous at heartwall-rodinia-2.1.sm_30.ptx:30 skipping new declaration
GPGPU-Sim PTX: Warning %p415 was declared previous at heartwall-rodinia-2.1.sm_30.ptx:30 skipping new declaration
GPGPU-Sim PTX: Warning %p416 was declared previous at heartwall-rodinia-2.1.sm_30.ptx:30 skipping new declaration
GPGPU-Sim PTX: Warning %p417 was declared previous at heartwall-rodinia-2.1.sm_30.ptx:30 skipping new declaration
GPGPU-Sim PTX: Warning %p418 was declared previous at heartwall-rodinia-2.1.sm_30.ptx:30 skipping new declaration
GPGPU-Sim PTX: Warning %p419 was declared previous at heartwall-rodinia-2.1.sm_30.ptx:30 skipping new declaration
GPGPU-Sim PTX: Warning %p420 was declared previous at heartwall-rodinia-2.1.sm_30.ptx:30 skipping new declaration
GPGPU-Sim PTX: Warning %p421 was declared previous at heartwall-rodinia-2.1.sm_30.ptx:30 skipping new declaration
GPGPU-Sim PTX: Warning %p422 was declared previous at heartwall-rodinia-2.1.sm_30.ptx:30 skipping new declaration
GPGPU-Sim PTX: Warning %p423 was declared previous at heartwall-rodinia-2.1.sm_30.ptx:30 skipping new declaration
GPGPU-Sim PTX: Warning %p424 was declared previous at heartwall-rodinia-2.1.sm_30.ptx:30 skipping new declaration
GPGPU-Sim PTX: Warning %p425 was declared previous at heartwall-rodinia-2.1.sm_30.ptx:30 skipping new declaration
GPGPU-Sim PTX: Warning %p426 was declared previous at heartwall-rodinia-2.1.sm_30.ptx:30 skipping new declaration
GPGPU-Sim PTX: Warning %p427 was declared previous at heartwall-rodinia-2.1.sm_30.ptx:30 skipping new declaration
GPGPU-Sim PTX: Warning %p428 was declared previous at heartwall-rodinia-2.1.sm_30.ptx:30 skipping new declaration
GPGPU-Sim PTX: Warning %p429 was declared previous at heartwall-rodinia-2.1.sm_30.ptx:30 skipping new declaration
[...]
common.tEpiRowLoc[2868] = 0
common.tEpiColLoc[2868] = 0
common.tEpiRowLoc[2869] = 0
common.tEpiColLoc[2869] = 0
common.tEpiRowLoc[2870] = 0
common.tEpiColLoc[2870] = 0
common.tEpiRowLoc[2871] = 0
common.tEpiColLoc[2871] = 0
common.tEpiRowLoc[2872] = 0
common.tEpiColLoc[2872] = 0
common.tEpiRowLoc[2873] = 0
common.tEpiColLoc[2873] = 0
common.tEpiRowLoc[2874] = 0
common.tEpiColLoc[2874] = 0
common.tEpiRowLoc[2875] = 0
common.tEpiColLoc[2875] = 0
common.tEpiRowLoc[2876] = 0
common.tEpiColLoc[2876] = 0
common.tEpiRowLoc[2877] = 0
common.tEpiColLoc[2877] = 0
common.tEpiRowLoc[2878] = 0
common.tEpiColLoc[2878] = 0
common.tEpiRowLoc[2879] = 0
common.tEpiColLoc[2879] = 0
common.tEpiRowLoc[2880] = 0
common.tEpiColLoc[2880] = 0
common.tEpiRowLoc[2881] = 0
common.tEpiColLoc[2881] = 0
common.tEpiRowLoc[2882] = 0
common.tEpiColLoc[2882] = 0
common.tEpiRowLoc[2883] = 0
common.tEpiColLoc[2883] = 0
common.tEpiRowLoc[2884] = 0
common.tEpiColLoc[2884] = 0
common.tEpiRowLoc[2885] = 0
common.tEpiColLoc[2885] = 0
common.tEpiRowLoc[2886] = 0
common.tEpiColLoc[2886] = 0
common.tEpiRowLoc[2887] = 0
common.tEpiColLoc[2887] = 0
common.tEpiRowLoc[2888] = 0
common.tEpiColLoc[2888] = 0
common.tEpiRowLoc[2889] = 0
common.tEpiColLoc[2889] = 0
common.tEpiRowLoc[2890] = 0
common.tEpiColLoc[2890] = 0
common.tEpiRowLoc[2891] = 0
common.tEpiColLoc[2891] = 0
common.tEpiRowLoc[2892] = 0
common.tEpiColLoc[2892] = 0
common.tEpiRowLoc[2893] = 0
common.tEpiColLoc[2893] = 0
common.tEpiRowLoc[2894] = 0
common.tEpiColLoc[2894] = 0
common.tEpiRowLoc[2895] = 0
common.tEpiColLoc[2895] = 0
common.tEpiRowLoc[2896] = 0
common.tEpiColLoc[2896] = 0
common.tEpiRowLoc[2897] = 0
common.tEpiColLoc[2897] = 0
common.tEpiRowLoc[2898] = 0
common.tEpiColLoc[2898] = 0
common.tEpiRowLoc[2899] = 0
common.tEpiColLoc[2899] = 0
common.tEpiRowLoc[2900] = 0
common.tEpiColLoc[2900] = 0
common.tEpiRowLoc[2901] = 0
common.tEpiColLoc[2901] = 0
common.tEpiRowLoc[2902] = 0
common.tEpiColLoc[2902] = 0
common.tEpiRowLoc[2903] = 0
common.tEpiColLoc[2903] = 0
common.tEpiRowLoc[2904] = 0
common.tEpiColLoc[2904] = 0
common.tEpiRowLoc[2905] = 0
common.tEpiColLoc[2905] = 0
common.tEpiRowLoc[2906] = 0
common.tEpiColLoc[2906] = 0
common.tEpiRowLoc[2907] = 0
common.tEpiColLoc[2907] = 0
common.tEpiRowLoc[2908] = 0
common.tEpiColLoc[2908] = 0
common.tEpiRowLoc[2909] = 0
common.tEpiColLoc[2909] = 0
common.tEpiRowLoc[2910] = 0
common.tEpiColLoc[2910] = 0
common.tEpiRowLoc[2911] = 0
common.tEpiColLoc[2911] = 0
common.tEpiRowLoc[2912] = 305
common.tEpiColLoc[2912] = 434
common.tEpiRowLoc[2913] = 0
common.tEpiColLoc[2913] = 0
common.tEpiRowLoc[2914] = 0
common.tEpiColLoc[2914] = 0
common.tEpiRowLoc[2915] = 0
common.tEpiColLoc[2915] = 0
common.tEpiRowLoc[2916] = 0
common.tEpiColLoc[2916] = 0
common.tEpiRowLoc[2917] = 0
common.tEpiColLoc[2917] = 0
common.tEpiRowLoc[2918] = 0
common.tEpiColLoc[2918] = 0
common.tEpiRowLoc[2919] = 0
common.tEpiColLoc[2919] = 0
common.tEpiRowLoc[2920] = 0
common.tEpiColLoc[2920] = 0
common.tEpiRowLoc[2921] = 0
common.tEpiColLoc[2921] = 0
common.tEpiRowLoc[2922] = 0
common.tEpiColLoc[2922] = 0
common.tEpiRowLoc[2923] = 0
common.tEpiColLoc[2923] = 0
common.tEpiRowLoc[2924] = 0
common.tEpiColLoc[2924] = 0
common.tEpiRowLoc[2925] = 0
common.tEpiColLoc[2925] = 0
common.tEpiRowLoc[2926] = 0
common.tEpiColLoc[2926] = 0
common.tEpiRowLoc[2927] = 0
common.tEpiColLoc[2927] = 0
common.tEpiRowLoc[2928] = 0
common.tEpiColLoc[2928] = 0
common.tEpiRowLoc[2929] = 0
common.tEpiColLoc[2929] = 0
common.tEpiRowLoc[2930] = 0
common.tEpiColLoc[2930] = 0
common.tEpiRowLoc[2931] = 0
common.tEpiColLoc[2931] = 0
common.tEpiRowLoc[2932] = 0
common.tEpiColLoc[2932] = 0
common.tEpiRowLoc[2933] = 0
common.tEpiColLoc[2933] = 0
common.tEpiRowLoc[2934] = 0
common.tEpiColLoc[2934] = 0
common.tEpiRowLoc[2935] = 0
common.tEpiColLoc[2935] = 0
common.tEpiRowLoc[2936] = 0
common.tEpiColLoc[2936] = 0
common.tEpiRowLoc[2937] = 0
common.tEpiColLoc[2937] = 0
common.tEpiRowLoc[2938] = 0
common.tEpiColLoc[2938] = 0
common.tEpiRowLoc[2939] = 0
common.tEpiColLoc[2939] = 0
common.tEpiRowLoc[2940] = 0
common.tEpiColLoc[2940] = 0
common.tEpiRowLoc[2941] = 0
common.tEpiColLoc[2941] = 0
common.tEpiRowLoc[2942] = 0
common.tEpiColLoc[2942] = 0
common.tEpiRowLoc[2943] = 0
common.tEpiColLoc[2943] = 0
common.tEpiRowLoc[2944] = 0
common.tEpiColLoc[2944] = 0
common.tEpiRowLoc[2945] = 0
common.tEpiColLoc[2945] = 0
common.tEpiRowLoc[2946] = 0
common.tEpiColLoc[2946] = 0
common.tEpiRowLoc[2947] = 0
common.tEpiColLoc[2947] = 0
common.tEpiRowLoc[2948] = 0
common.tEpiColLoc[2948] = 0
common.tEpiRowLoc[2949] = 0
common.tEpiColLoc[2949] = 0
common.tEpiRowLoc[2950] = 0
common.tEpiColLoc[2950] = 0
common.tEpiRowLoc[2951] = 0
common.tEpiColLoc[2951] = 0
common.tEpiRowLoc[2952] = 0
common.tEpiColLoc[2952] = 0
common.tEpiRowLoc[2953] = 0
common.tEpiColLoc[2953] = 0
common.tEpiRowLoc[2954] = 0
common.tEpiColLoc[2954] = 0
common.tEpiRowLoc[2955] = 0
common.tEpiColLoc[2955] = 0
common.tEpiRowLoc[2956] = 0
common.tEpiColLoc[2956] = 0
common.tEpiRowLoc[2957] = 0
common.tEpiColLoc[2957] = 0
common.tEpiRowLoc[2958] = 0
common.tEpiColLoc[2958] = 0
common.tEpiRowLoc[2959] = 0
common.tEpiColLoc[2959] = 0
common.tEpiRowLoc[2960] = 0
common.tEpiColLoc[2960] = 0
common.tEpiRowLoc[2961] = 0
common.tEpiColLoc[2961] = 0
common.tEpiRowLoc[2962] = 0
common.tEpiColLoc[2962] = 0
common.tEpiRowLoc[2963] = 0
common.tEpiColLoc[2963] = 0
common.tEpiRowLoc[2964] = 0
common.tEpiColLoc[2964] = 0
common.tEpiRowLoc[2965] = 0
common.tEpiColLoc[2965] = 0
common.tEpiRowLoc[2966] = 0
common.tEpiColLoc[2966] = 0
common.tEpiRowLoc[2967] = 0
common.tEpiColLoc[2967] = 0
common.tEpiRowLoc[2968] = 0
common.tEpiColLoc[2968] = 0
common.tEpiRowLoc[2969] = 0
common.tEpiColLoc[2969] = 0
common.tEpiRowLoc[2970] = 0
common.tEpiColLoc[2970] = 0
common.tEpiRowLoc[2971] = 0
common.tEpiColLoc[2971] = 0
common.tEpiRowLoc[2972] = 0
common.tEpiColLoc[2972] = 0
common.tEpiRowLoc[2973] = 0
common.tEpiColLoc[2973] = 0
common.tEpiRowLoc[2974] = 0
common.tEpiColLoc[2974] = 0
common.tEpiRowLoc[2975] = 0
common.tEpiColLoc[2975] = 0
common.tEpiRowLoc[2976] = 0
common.tEpiColLoc[2976] = 0
common.tEpiRowLoc[2977] = 0
common.tEpiColLoc[2977] = 0
common.tEpiRowLoc[2978] = 0
common.tEpiColLoc[2978] = 0
common.tEpiRowLoc[2979] = 0
common.tEpiColLoc[2979] = 0
common.tEpiRowLoc[2980] = 0
common.tEpiColLoc[2980] = 0
common.tEpiRowLoc[2981] = 0
common.tEpiColLoc[2981] = 0
common.tEpiRowLoc[2982] = 0
common.tEpiColLoc[2982] = 0
common.tEpiRowLoc[2983] = 0
common.tEpiColLoc[2983] = 0
common.tEpiRowLoc[2984] = 0
common.tEpiColLoc[2984] = 0
common.tEpiRowLoc[2985] = 0
common.tEpiColLoc[2985] = 0
common.tEpiRowLoc[2986] = 0
common.tEpiColLoc[2986] = 0
common.tEpiRowLoc[2987] = 0
common.tEpiColLoc[2987] = 0
common.tEpiRowLoc[2988] = 0
common.tEpiColLoc[2988] = 0
common.tEpiRowLoc[2989] = 0
common.tEpiColLoc[2989] = 0
common.tEpiRowLoc[2990] = 0
common.tEpiColLoc[2990] = 0
common.tEpiRowLoc[2991] = 0
common.tEpiColLoc[2991] = 0
common.tEpiRowLoc[2992] = 0
common.tEpiColLoc[2992] = 0
common.tEpiRowLoc[2993] = 0
common.tEpiColLoc[2993] = 0
common.tEpiRowLoc[2994] = 0
common.tEpiColLoc[2994] = 0
common.tEpiRowLoc[2995] = 0
common.tEpiColLoc[2995] = 0
common.tEpiRowLoc[2996] = 0
common.tEpiColLoc[2996] = 0
common.tEpiRowLoc[2997] = 0
common.tEpiColLoc[2997] = 0
common.tEpiRowLoc[2998] = 0
common.tEpiColLoc[2998] = 0
common.tEpiRowLoc[2999] = 0
common.tEpiColLoc[2999] = 0
common.tEpiRowLoc[3000] = 0
common.tEpiColLoc[3000] = 0
common.tEpiRowLoc[3001] = 0
common.tEpiColLoc[3001] = 0
common.tEpiRowLoc[3002] = 0
common.tEpiColLoc[3002] = 0
common.tEpiRowLoc[3003] = 0
common.tEpiColLoc[3003] = 0
common.tEpiRowLoc[3004] = 0
common.tEpiColLoc[3004] = 0
common.tEpiRowLoc[3005] = 0
common.tEpiColLoc[3005] = 0
common.tEpiRowLoc[3006] = 0
common.tEpiColLoc[3006] = 0
common.tEpiRowLoc[3007] = 0
common.tEpiColLoc[3007] = 0
common.tEpiRowLoc[3008] = 0
common.tEpiColLoc[3008] = 0
common.tEpiRowLoc[3009] = 0
common.tEpiColLoc[3009] = 0
common.tEpiRowLoc[3010] = 0
common.tEpiColLoc[3010] = 0
common.tEpiRowLoc[3011] = 0
common.tEpiColLoc[3011] = 0
common.tEpiRowLoc[3012] = 0
common.tEpiColLoc[3012] = 0
common.tEpiRowLoc[3013] = 0
common.tEpiColLoc[3013] = 0
common.tEpiRowLoc[3014] = 0
common.tEpiColLoc[3014] = 0
common.tEpiRowLoc[3015] = 0
common.tEpiColLoc[3015] = 0
common.tEpiRowLoc[3016] = 331
common.tEpiColLoc[3016] = 448
common.tEpiRowLoc[3017] = 0
common.tEpiColLoc[3017] = 0
common.tEpiRowLoc[3018] = 0
common.tEpiColLoc[3018] = 0
common.tEpiRowLoc[3019] = 0
common.tEpiColLoc[3019] = 0
common.tEpiRowLoc[3020] = 0
common.tEpiColLoc[3020] = 0
common.tEpiRowLoc[3021] = 0
common.tEpiColLoc[3021] = 0
common.tEpiRowLoc[3022] = 0
common.tEpiColLoc[3022] = 0
common.tEpiRowLoc[3023] = 0
common.tEpiColLoc[3023] = 0
common.tEpiRowLoc[3024] = 0
common.tEpiColLoc[3024] = 0
common.tEpiRowLoc[3025] = 0
common.tEpiColLoc[3025] = 0
common.tEpiRowLoc[3026] = 0
common.tEpiColLoc[3026] = 0
common.tEpiRowLoc[3027] = 0
common.tEpiColLoc[3027] = 0
common.tEpiRowLoc[3028] = 0
common.tEpiColLoc[3028] = 0
common.tEpiRowLoc[3029] = 0
common.tEpiColLoc[3029] = 0
common.tEpiRowLoc[3030] = 0
common.tEpiColLoc[3030] = 0
common.tEpiRowLoc[3031] = 0
common.tEpiColLoc[3031] = 0
common.tEpiRowLoc[3032] = 0
common.tEpiColLoc[3032] = 0
common.tEpiRowLoc[3033] = 0
common.tEpiColLoc[3033] = 0
common.tEpiRowLoc[3034] = 0
common.tEpiColLoc[3034] = 0
common.tEpiRowLoc[3035] = 0
common.tEpiColLoc[3035] = 0
common.tEpiRowLoc[3036] = 0
common.tEpiColLoc[3036] = 0
common.tEpiRowLoc[3037] = 0
common.tEpiColLoc[3037] = 0
common.tEpiRowLoc[3038] = 0
common.tEpiColLoc[3038] = 0
common.tEpiRowLoc[3039] = 0
common.tEpiColLoc[3039] = 0
common.tEpiRowLoc[3040] = 0
common.tEpiColLoc[3040] = 0
common.tEpiRowLoc[3041] = 0
common.tEpiColLoc[3041] = 0
common.tEpiRowLoc[3042] = 0
common.tEpiColLoc[3042] = 0
common.tEpiRowLoc[3043] = 0
common.tEpiColLoc[3043] = 0
common.tEpiRowLoc[3044] = 0
common.tEpiColLoc[3044] = 0
common.tEpiRowLoc[3045] = 0
common.tEpiColLoc[3045] = 0
common.tEpiRowLoc[3046] = 0
common.tEpiColLoc[3046] = 0
common.tEpiRowLoc[3047] = 0
common.tEpiColLoc[3047] = 0
common.tEpiRowLoc[3048] = 0
common.tEpiColLoc[3048] = 0
common.tEpiRowLoc[3049] = 0
common.tEpiColLoc[3049] = 0
common.tEpiRowLoc[3050] = 0
common.tEpiColLoc[3050] = 0
common.tEpiRowLoc[3051] = 0
common.tEpiColLoc[3051] = 0
common.tEpiRowLoc[3052] = 0
common.tEpiColLoc[3052] = 0
common.tEpiRowLoc[3053] = 0
common.tEpiColLoc[3053] = 0
common.tEpiRowLoc[3054] = 0
common.tEpiColLoc[3054] = 0
common.tEpiRowLoc[3055] = 0
common.tEpiColLoc[3055] = 0
common.tEpiRowLoc[3056] = 0
common.tEpiColLoc[3056] = 0
common.tEpiRowLoc[3057] = 0
common.tEpiColLoc[3057] = 0
common.tEpiRowLoc[3058] = 0
common.tEpiColLoc[3058] = 0
common.tEpiRowLoc[3059] = 0
common.tEpiColLoc[3059] = 0
common.tEpiRowLoc[3060] = 0
common.tEpiColLoc[3060] = 0
common.tEpiRowLoc[3061] = 0
common.tEpiColLoc[3061] = 0
common.tEpiRowLoc[3062] = 0
common.tEpiColLoc[3062] = 0
common.tEpiRowLoc[3063] = 0
common.tEpiColLoc[3063] = 0
common.tEpiRowLoc[3064] = 0
common.tEpiColLoc[3064] = 0
common.tEpiRowLoc[3065] = 0
common.tEpiColLoc[3065] = 0
common.tEpiRowLoc[3066] = 0
common.tEpiColLoc[3066] = 0
common.tEpiRowLoc[3067] = 0
common.tEpiColLoc[3067] = 0
common.tEpiRowLoc[3068] = 0
common.tEpiColLoc[3068] = 0
common.tEpiRowLoc[3069] = 0
common.tEpiColLoc[3069] = 0
common.tEpiRowLoc[3070] = 0
common.tEpiColLoc[3070] = 0
common.tEpiRowLoc[3071] = 0
common.tEpiColLoc[3071] = 0
common.tEpiRowLoc[3072] = 0
common.tEpiColLoc[3072] = 0
common.tEpiRowLoc[3073] = 0
common.tEpiColLoc[3073] = 0
common.tEpiRowLoc[3074] = 0
common.tEpiColLoc[3074] = 0
common.tEpiRowLoc[3075] = 0
common.tEpiColLoc[3075] = 0
common.tEpiRowLoc[3076] = 0
common.tEpiColLoc[3076] = 0
common.tEpiRowLoc[3077] = 0
common.tEpiColLoc[3077] = 0
common.tEpiRowLoc[3078] = 0
common.tEpiColLoc[3078] = 0
common.tEpiRowLoc[3079] = 0
common.tEpiColLoc[3079] = 0
common.tEpiRowLoc[3080] = 0
common.tEpiColLoc[3080] = 0
common.tEpiRowLoc[3081] = 0
common.tEpiColLoc[3081] = 0
common.tEpiRowLoc[3082] = 0
common.tEpiColLoc[3082] = 0
common.tEpiRowLoc[3083] = 0
common.tEpiColLoc[3083] = 0
common.tEpiRowLoc[3084] = 0
common.tEpiColLoc[3084] = 0
common.tEpiRowLoc[3085] = 0
common.tEpiColLoc[3085] = 0
common.tEpiRowLoc[3086] = 0
common.tEpiColLoc[3086] = 0
common.tEpiRowLoc[3087] = 0
common.tEpiColLoc[3087] = 0
common.tEpiRowLoc[3088] = 0
common.tEpiColLoc[3088] = 0
common.tEpiRowLoc[3089] = 0
common.tEpiColLoc[3089] = 0
common.tEpiRowLoc[3090] = 0
common.tEpiColLoc[3090] = 0
common.tEpiRowLoc[3091] = 0
common.tEpiColLoc[3091] = 0
common.tEpiRowLoc[3092] = 0
common.tEpiColLoc[3092] = 0
common.tEpiRowLoc[3093] = 0
common.tEpiColLoc[3093] = 0
common.tEpiRowLoc[3094] = 0
common.tEpiColLoc[3094] = 0
common.tEpiRowLoc[3095] = 0
common.tEpiColLoc[3095] = 0
common.tEpiRowLoc[3096] = 0
common.tEpiColLoc[3096] = 0
common.tEpiRowLoc[3097] = 0
common.tEpiColLoc[3097] = 0
common.tEpiRowLoc[3098] = 0
common.tEpiColLoc[3098] = 0
common.tEpiRowLoc[3099] = 0
common.tEpiColLoc[3099] = 0
common.tEpiRowLoc[3100] = 0
common.tEpiColLoc[3100] = 0
common.tEpiRowLoc[3101] = 0
common.tEpiColLoc[3101] = 0
common.tEpiRowLoc[3102] = 0
common.tEpiColLoc[3102] = 0
common.tEpiRowLoc[3103] = 0
common.tEpiColLoc[3103] = 0
common.tEpiRowLoc[3104] = 0
common.tEpiColLoc[3104] = 0
common.tEpiRowLoc[3105] = 0
common.tEpiColLoc[3105] = 0
common.tEpiRowLoc[3106] = 0
common.tEpiColLoc[3106] = 0
common.tEpiRowLoc[3107] = 0
common.tEpiColLoc[3107] = 0
common.tEpiRowLoc[3108] = 0
common.tEpiColLoc[3108] = 0
common.tEpiRowLoc[3109] = 0
common.tEpiColLoc[3109] = 0
common.tEpiRowLoc[3110] = 0
common.tEpiColLoc[3110] = 0
common.tEpiRowLoc[3111] = 0
common.tEpiColLoc[3111] = 0
common.tEpiRowLoc[3112] = 0
common.tEpiColLoc[3112] = 0
common.tEpiRowLoc[3113] = 0
common.tEpiColLoc[3113] = 0
common.tEpiRowLoc[3114] = 0
common.tEpiColLoc[3114] = 0
common.tEpiRowLoc[3115] = 0
common.tEpiColLoc[3115] = 0
common.tEpiRowLoc[3116] = 0
common.tEpiColLoc[3116] = 0
common.tEpiRowLoc[3117] = 0
common.tEpiColLoc[3117] = 0
common.tEpiRowLoc[3118] = 0
common.tEpiColLoc[3118] = 0
common.tEpiRowLoc[3119] = 0
common.tEpiColLoc[3119] = 0
common.tEpiRowLoc[3120] = 360
common.tEpiColLoc[3120] = 455
common.tEpiRowLoc[3121] = 0
common.tEpiColLoc[3121] = 0
common.tEpiRowLoc[3122] = 0
common.tEpiColLoc[3122] = 0
common.tEpiRowLoc[3123] = 0
common.tEpiColLoc[3123] = 0
common.tEpiRowLoc[3124] = 0
common.tEpiColLoc[3124] = 0
common.tEpiRowLoc[3125] = 0
common.tEpiColLoc[3125] = 0
common.tEpiRowLoc[3126] = 0
common.tEpiColLoc[3126] = 0
common.tEpiRowLoc[3127] = 0
common.tEpiColLoc[3127] = 0
common.tEpiRowLoc[3128] = 0
common.tEpiColLoc[3128] = 0
common.tEpiRowLoc[3129] = 0
common.tEpiColLoc[3129] = 0
common.tEpiRowLoc[3130] = 0
common.tEpiColLoc[3130] = 0
common.tEpiRowLoc[3131] = 0
common.tEpiColLoc[3131] = 0
common.tEpiRowLoc[3132] = 0
common.tEpiColLoc[3132] = 0
common.tEpiRowLoc[3133] = 0
common.tEpiColLoc[3133] = 0
common.tEpiRowLoc[3134] = 0
common.tEpiColLoc[3134] = 0
common.tEpiRowLoc[3135] = 0
common.tEpiColLoc[3135] = 0
common.tEpiRowLoc[3136] = 0
common.tEpiColLoc[3136] = 0
common.tEpiRowLoc[3137] = 0
common.tEpiColLoc[3137] = 0
common.tEpiRowLoc[3138] = 0
common.tEpiColLoc[3138] = 0
common.tEpiRowLoc[3139] = 0
common.tEpiColLoc[3139] = 0
common.tEpiRowLoc[3140] = 0
common.tEpiColLoc[3140] = 0
common.tEpiRowLoc[3141] = 0
common.tEpiColLoc[3141] = 0
common.tEpiRowLoc[3142] = 0
common.tEpiColLoc[3142] = 0
common.tEpiRowLoc[3143] = 0
common.tEpiColLoc[3143] = 0
common.tEpiRowLoc[3144] = 0
common.tEpiColLoc[3144] = 0
common.tEpiRowLoc[3145] = 0
common.tEpiColLoc[3145] = 0
common.tEpiRowLoc[3146] = 0
common.tEpiColLoc[3146] = 0
common.tEpiRowLoc[3147] = 0
common.tEpiColLoc[3147] = 0
common.tEpiRowLoc[3148] = 0
common.tEpiColLoc[3148] = 0
common.tEpiRowLoc[3149] = 0
common.tEpiColLoc[3149] = 0
common.tEpiRowLoc[3150] = 0
common.tEpiColLoc[3150] = 0
common.tEpiRowLoc[3151] = 0
common.tEpiColLoc[3151] = 0
common.tEpiRowLoc[3152] = 0
common.tEpiColLoc[3152] = 0
common.tEpiRowLoc[3153] = 0
common.tEpiColLoc[3153] = 0
common.tEpiRowLoc[3154] = 0
common.tEpiColLoc[3154] = 0
common.tEpiRowLoc[3155] = 0
common.tEpiColLoc[3155] = 0
common.tEpiRowLoc[3156] = 0
common.tEpiColLoc[3156] = 0
common.tEpiRowLoc[3157] = 0
common.tEpiColLoc[3157] = 0
common.tEpiRowLoc[3158] = 0
common.tEpiColLoc[3158] = 0
common.tEpiRowLoc[3159] = 0
common.tEpiColLoc[3159] = 0
common.tEpiRowLoc[3160] = 0
common.tEpiColLoc[3160] = 0
common.tEpiRowLoc[3161] = 0
common.tEpiColLoc[3161] = 0
common.tEpiRowLoc[3162] = 0
common.tEpiColLoc[3162] = 0
common.tEpiRowLoc[3163] = 0
common.tEpiColLoc[3163] = 0
common.tEpiRowLoc[3164] = 0
common.tEpiColLoc[3164] = 0
common.tEpiRowLoc[3165] = 0
common.tEpiColLoc[3165] = 0
common.tEpiRowLoc[3166] = 0
common.tEpiColLoc[3166] = 0
common.tEpiRowLoc[3167] = 0
common.tEpiColLoc[3167] = 0
common.tEpiRowLoc[3168] = 0
common.tEpiColLoc[3168] = 0
common.tEpiRowLoc[3169] = 0
common.tEpiColLoc[3169] = 0
common.tEpiRowLoc[3170] = 0
common.tEpiColLoc[3170] = 0
common.tEpiRowLoc[3171] = 0
common.tEpiColLoc[3171] = 0
common.tEpiRowLoc[3172] = 0
common.tEpiColLoc[3172] = 0
common.tEpiRowLoc[3173] = 0
common.tEpiColLoc[3173] = 0
common.tEpiRowLoc[3174] = 0
common.tEpiColLoc[3174] = 0
common.tEpiRowLoc[3175] = 0
common.tEpiColLoc[3175] = 0
common.tEpiRowLoc[3176] = 0
common.tEpiColLoc[3176] = 0
common.tEpiRowLoc[3177] = 0
common.tEpiColLoc[3177] = 0
common.tEpiRowLoc[3178] = 0
common.tEpiColLoc[3178] = 0
common.tEpiRowLoc[3179] = 0
common.tEpiColLoc[3179] = 0
common.tEpiRowLoc[3180] = 0
common.tEpiColLoc[3180] = 0
common.tEpiRowLoc[3181] = 0
common.tEpiColLoc[3181] = 0
common.tEpiRowLoc[3182] = 0
common.tEpiColLoc[3182] = 0
common.tEpiRowLoc[3183] = 0
common.tEpiColLoc[3183] = 0
common.tEpiRowLoc[3184] = 0
common.tEpiColLoc[3184] = 0
common.tEpiRowLoc[3185] = 0
common.tEpiColLoc[3185] = 0
common.tEpiRowLoc[3186] = 0
common.tEpiColLoc[3186] = 0
common.tEpiRowLoc[3187] = 0
common.tEpiColLoc[3187] = 0
common.tEpiRowLoc[3188] = 0
common.tEpiColLoc[3188] = 0
common.tEpiRowLoc[3189] = 0
common.tEpiColLoc[3189] = 0
common.tEpiRowLoc[3190] = 0
common.tEpiColLoc[3190] = 0
common.tEpiRowLoc[3191] = 0
common.tEpiColLoc[3191] = 0
common.tEpiRowLoc[3192] = 0
common.tEpiColLoc[3192] = 0
common.tEpiRowLoc[3193] = 0
common.tEpiColLoc[3193] = 0
common.tEpiRowLoc[3194] = 0
common.tEpiColLoc[3194] = 0
common.tEpiRowLoc[3195] = 0
common.tEpiColLoc[3195] = 0
common.tEpiRowLoc[3196] = 0
common.tEpiColLoc[3196] = 0
common.tEpiRowLoc[3197] = 0
common.tEpiColLoc[3197] = 0
common.tEpiRowLoc[3198] = 0
common.tEpiColLoc[3198] = 0
common.tEpiRowLoc[3199] = 0
common.tEpiColLoc[3199] = 0
common.tEpiRowLoc[3200] = 0
common.tEpiColLoc[3200] = 0
common.tEpiRowLoc[3201] = 0
common.tEpiColLoc[3201] = 0
common.tEpiRowLoc[3202] = 0
common.tEpiColLoc[3202] = 0
common.tEpiRowLoc[3203] = 0
common.tEpiColLoc[3203] = 0
common.tEpiRowLoc[3204] = 0
common.tEpiColLoc[3204] = 0
common.tEpiRowLoc[3205] = 0
common.tEpiColLoc[3205] = 0
common.tEpiRowLoc[3206] = 0
common.tEpiColLoc[3206] = 0
common.tEpiRowLoc[3207] = 0
common.tEpiColLoc[3207] = 0
common.tEpiRowLoc[3208] = 0
common.tEpiColLoc[3208] = 0
common.tEpiRowLoc[3209] = 0
common.tEpiColLoc[3209] = 0
common.tEpiRowLoc[3210] = 0
common.tEpiColLoc[3210] = 0
common.tEpiRowLoc[3211] = 0
common.tEpiColLoc[3211] = 0
common.tEpiRowLoc[3212] = 0
common.tEpiColLoc[3212] = 0
common.tEpiRowLoc[3213] = 0
common.tEpiColLoc[3213] = 0
common.tEpiRowLoc[3214] = 0
common.tEpiColLoc[3214] = 0
common.tEpiRowLoc[3215] = 0
common.tEpiColLoc[3215] = 0
common.tEpiRowLoc[3216] = 0
common.tEpiColLoc[3216] = 0
common.tEpiRowLoc[3217] = 0
common.tEpiColLoc[3217] = 0
common.tEpiRowLoc[3218] = 0
common.tEpiColLoc[3218] = 0
common.tEpiRowLoc[3219] = 0
common.tEpiColLoc[3219] = 0
common.tEpiRowLoc[3220] = 0
common.tEpiColLoc[3220] = 0
common.tEpiRowLoc[3221] = 0
common.tEpiColLoc[3221] = 0
common.tEpiRowLoc[3222] = 0
common.tEpiColLoc[3222] = 0
common.tEpiRowLoc[3223] = 0
common.tEpiColLoc[3223] = 0

PASSED
GPGPU-Sim: *** exit detected ***
