GPGPU-Sim version 4.2.0 (build gpgpu-sim_git-commit-13c67115070dc2f0876254a790d0238073ca364a-modified_590.0) configured with AccelWattch.

----------------------------------------------------------------------------
INFO - If you only care about PTX execution, ignore this message. GPGPU-Sim supports PTX execution in modern CUDA.
If you want to run PTXPLUS (sm_1x SASS) with a modern card configuration - set the envronment variable
$PTXAS_CUDA_INSTALL_PATH to point a CUDA version compabible with your card configurations (i.e. 8+ for PASCAL, 9+ for VOLTA etc..)
For example: "export $PTXAS_CUDA_INSTALL_PATH=/usr/local/cuda-9.1"

The following text describes why:
If you are using PTXPLUS, only sm_1x is supported and it requires that the app and simulator binaries are compiled in CUDA 4.2 or less.
The simulator requires it since CUDA headers desribe struct sizes in the exec which change from gen to gen.
The apps require 4.2 because new versions of CUDA tools have dropped parsing support for generating sm_1x
When running using modern config (i.e. volta) and PTXPLUS with CUDA 4.2, the $PTXAS_CUDA_INSTALL_PATH env variable is required to get proper register usage
(and hence occupancy) using a version of CUDA that knows the register usage on the real card.

----------------------------------------------------------------------------
setup_environment succeeded


        *** GPGPU-Sim Simulator Version 4.2.0  [build gpgpu-sim_git-commit-13c67115070dc2f0876254a790d0238073ca364a_modified_0.0] ***


GPGPU-Sim PTX: simulation mode 0 (can change with PTX_SIM_MODE_FUNC environment variable:
               1=functional simulation only, 0=detailed performance simulator)
GPGPU-Sim PTX: overriding embedded ptx with ptx file (PTX_SIM_USE_PTX_FILE is set)
GPGPU-Sim: Configuration options:

-save_embedded_ptx                      0 # saves ptx files embedded in binary as <n>.ptx
-keep                                   0 # keep intermediate files created by GPGPU-Sim when interfacing with external programs
-gpgpu_ptx_save_converted_ptxplus                    0 # Saved converted ptxplus to a file
-gpgpu_occupancy_sm_number                   60 # The SM number to pass to ptxas when getting register usage for computing GPU occupancy. This parameter is required in the config.
-ptx_opcode_latency_int         4,13,4,5,145 # Opcode latencies for integers <ADD,MAX,MUL,MAD,DIV,SHFL>Default 1,1,19,25,145,32
-ptx_opcode_latency_fp          4,13,4,5,39 # Opcode latencies for single precision floating points <ADD,MAX,MUL,MAD,DIV>Default 1,1,1,1,30
-ptx_opcode_latency_dp         8,19,8,8,330 # Opcode latencies for double precision floating points <ADD,MAX,MUL,MAD,DIV>Default 8,8,8,8,335
-ptx_opcode_latency_sfu                    8 # Opcode latencies for SFU instructionsDefault 8
-ptx_opcode_latency_tesnor                   64 # Opcode latencies for Tensor instructionsDefault 64
-ptx_opcode_initiation_int            1,2,2,2,8 # Opcode initiation intervals for integers <ADD,MAX,MUL,MAD,DIV,SHFL>Default 1,1,4,4,32,4
-ptx_opcode_initiation_fp            1,2,1,1,4 # Opcode initiation intervals for single precision floating points <ADD,MAX,MUL,MAD,DIV>Default 1,1,1,1,5
-ptx_opcode_initiation_dp          1,2,1,1,130 # Opcode initiation intervals for double precision floating points <ADD,MAX,MUL,MAD,DIV>Default 8,8,8,8,130
-ptx_opcode_initiation_sfu                    8 # Opcode initiation intervals for sfu instructionsDefault 8
-ptx_opcode_initiation_tensor                   64 # Opcode initiation intervals for tensor instructionsDefault 64
-cdp_latency         7200,8000,100,12000,1600 # CDP API latency <cudaStreamCreateWithFlags, cudaGetParameterBufferV2_init_perWarp, cudaGetParameterBufferV2_perKernel, cudaLaunchDeviceV2_init_perWarp, cudaLaunchDevicV2_perKernel>Default 7200,8000,100,12000,1600
-network_mode                           1 # Interconnection network mode
-inter_config_file   config_fermi_islip.icnt # Interconnection network config file
-icnt_in_buffer_limit                   64 # in_buffer_limit
-icnt_out_buffer_limit                   64 # out_buffer_limit
-icnt_subnets                           2 # subnets
-icnt_arbiter_algo                      1 # arbiter_algo
-icnt_verbose                           0 # inct_verbose
-icnt_grant_cycles                      1 # grant_cycles
-gpgpu_ptx_use_cuobjdump                    1 # Use cuobjdump to extract ptx and sass from binaries
-gpgpu_experimental_lib_support                    0 # Try to extract code from cuda libraries [Broken because of unknown cudaGetExportTable]
-checkpoint_option                      0 #  checkpointing flag (0 = no checkpoint)
-checkpoint_kernel                      1 #  checkpointing during execution of which kernel (1- 1st kernel)
-checkpoint_CTA                         0 #  checkpointing after # of CTA (< less than total CTA)
-resume_option                          0 #  resume flag (0 = no resume)
-resume_kernel                          0 #  Resume from which kernel (1= 1st kernel)
-resume_CTA                             0 #  resume from which CTA 
-checkpoint_CTA_t                       0 #  resume from which CTA 
-checkpoint_insn_Y                      0 #  resume from which CTA 
-gpgpu_ptx_convert_to_ptxplus                    0 # Convert SASS (native ISA) to ptxplus and run ptxplus
-gpgpu_ptx_force_max_capability                   60 # Force maximum compute capability
-gpgpu_ptx_inst_debug_to_file                    0 # Dump executed instructions' debug information to file
-gpgpu_ptx_inst_debug_file       inst_debug.txt # Executed instructions' debug output file
-gpgpu_ptx_inst_debug_thread_uid                    1 # Thread UID for executed instructions' debug output
-gpgpu_simd_model                       1 # 1 = post-dominator
-gpgpu_shader_core_pipeline              2048:32 # shader core pipeline config, i.e., {<nthread>:<warpsize>}
-gpgpu_tex_cache:l1  N:16:128:24,L:R:m:N:L,F:128:4,128:2 # per-shader L1 texture cache  (READ-ONLY) config  {<nsets>:<bsize>:<assoc>,<rep>:<wr>:<alloc>:<wr_alloc>,<mshr>:<N>:<merge>,<mq>:<rf>}
-gpgpu_const_cache:l1 N:128:64:2,L:R:f:N:L,A:2:64,4 # per-shader L1 constant memory cache  (READ-ONLY) config  {<nsets>:<bsize>:<assoc>,<rep>:<wr>:<alloc>:<wr_alloc>,<mshr>:<N>:<merge>,<mq>} 
-gpgpu_cache:il1     N:8:128:4,L:R:f:N:L,A:2:48,4 # shader L1 instruction cache config  {<nsets>:<bsize>:<assoc>,<rep>:<wr>:<alloc>:<wr_alloc>,<mshr>:<N>:<merge>,<mq>} 
-gpgpu_cache:dl1     N:64:128:6,L:L:m:N:H,A:128:8,8 # per-shader L1 data cache config  {<nsets>:<bsize>:<assoc>,<rep>:<wr>:<alloc>:<wr_alloc>,<mshr>:<N>:<merge>,<mq> | none}
-gpgpu_l1_cache_write_ratio                    0 # L1D write ratio
-gpgpu_l1_banks                         1 # The number of L1 cache banks
-gpgpu_l1_banks_byte_interleaving                   32 # l1 banks byte interleaving granularity
-gpgpu_l1_banks_hashing_function                    0 # l1 banks hashing function
-gpgpu_l1_latency                       1 # L1 Hit Latency
-gpgpu_smem_latency                     3 # smem Latency
-gpgpu_cache:dl1PrefL1                 none # per-shader L1 data cache config  {<nsets>:<bsize>:<assoc>,<rep>:<wr>:<alloc>:<wr_alloc>,<mshr>:<N>:<merge>,<mq> | none}
-gpgpu_cache:dl1PrefShared                 none # per-shader L1 data cache config  {<nsets>:<bsize>:<assoc>,<rep>:<wr>:<alloc>:<wr_alloc>,<mshr>:<N>:<merge>,<mq> | none}
-gpgpu_gmem_skip_L1D                    1 # global memory access skip L1D cache (implements -Xptxas -dlcm=cg, default=no skip)
-gpgpu_perfect_mem                      0 # enable perfect memory mode (no cache miss)
-n_regfile_gating_group                    4 # group of lanes that should be read/written together)
-gpgpu_clock_gated_reg_file                    0 # enable clock gated reg file for power calculations
-gpgpu_clock_gated_lanes                    0 # enable clock gated lanes for power calculations
-gpgpu_shader_registers                65536 # Number of registers per shader core. Limits number of concurrent CTAs. (default 8192)
-gpgpu_registers_per_block                 8192 # Maximum number of registers per CTA. (default 8192)
-gpgpu_ignore_resources_limitation                    0 # gpgpu_ignore_resources_limitation (default 0)
-gpgpu_shader_cta                      32 # Maximum number of concurrent CTAs in shader (default 32)
-gpgpu_num_cta_barriers                   16 # Maximum number of named barriers per CTA (default 16)
-gpgpu_n_clusters                      20 # number of processing clusters
-gpgpu_n_cores_per_cluster                    1 # number of simd cores per cluster
-gpgpu_n_cluster_ejection_buffer_size                    8 # number of packets in ejection buffer
-gpgpu_n_ldst_response_buffer_size                    2 # number of response packets in ld/st unit ejection buffer
-gpgpu_shmem_per_block                49152 # Size of shared memory per thread block or CTA (default 48kB)
-gpgpu_shmem_size                   98304 # Size of shared memory per shader core (default 16kB)
-gpgpu_shmem_option                     0 # Option list of shared memory sizes
-gpgpu_unified_l1d_size                    0 # Size of unified data cache(L1D + shared memory) in KB
-gpgpu_adaptive_cache_config                    0 # adaptive_cache_config
-gpgpu_shmem_sizeDefault                16384 # Size of shared memory per shader core (default 16kB)
-gpgpu_shmem_size_PrefL1                16384 # Size of shared memory per shader core (default 16kB)
-gpgpu_shmem_size_PrefShared                16384 # Size of shared memory per shader core (default 16kB)
-gpgpu_shmem_num_banks                   32 # Number of banks in the shared memory in each shader core (default 16)
-gpgpu_shmem_limited_broadcast                    0 # Limit shared memory to do one broadcast per cycle (default on)
-gpgpu_shmem_warp_parts                    1 # Number of portions a warp is divided into for shared memory bank conflict check 
-gpgpu_mem_unit_ports                    1 # The number of memory transactions allowed per core cycle
-gpgpu_shmem_warp_parts                    1 # Number of portions a warp is divided into for shared memory bank conflict check 
-gpgpu_warpdistro_shader                   -1 # Specify which shader core to collect the warp size distribution from
-gpgpu_warp_issue_shader                    0 # Specify which shader core to collect the warp issue distribution from
-gpgpu_local_mem_map                    1 # Mapping from local memory space address to simulated GPU physical address space (default = enabled)
-gpgpu_num_reg_banks                   32 # Number of register banks (default = 8)
-gpgpu_reg_bank_use_warp_id                    0 # Use warp ID in mapping registers to banks (default = off)
-gpgpu_sub_core_model                    0 # Sub Core Volta/Pascal model (default = off)
-gpgpu_enable_specialized_operand_collector                    1 # enable_specialized_operand_collector
-gpgpu_operand_collector_num_units_sp                   20 # number of collector units (default = 4)
-gpgpu_operand_collector_num_units_dp                    0 # number of collector units (default = 0)
-gpgpu_operand_collector_num_units_sfu                    4 # number of collector units (default = 4)
-gpgpu_operand_collector_num_units_int                    0 # number of collector units (default = 0)
-gpgpu_operand_collector_num_units_tensor_core                    4 # number of collector units (default = 4)
-gpgpu_operand_collector_num_units_mem                    8 # number of collector units (default = 2)
-gpgpu_operand_collector_num_units_gen                    0 # number of collector units (default = 0)
-gpgpu_operand_collector_num_in_ports_sp                    4 # number of collector unit in ports (default = 1)
-gpgpu_operand_collector_num_in_ports_dp                    0 # number of collector unit in ports (default = 0)
-gpgpu_operand_collector_num_in_ports_sfu                    1 # number of collector unit in ports (default = 1)
-gpgpu_operand_collector_num_in_ports_int                    0 # number of collector unit in ports (default = 0)
-gpgpu_operand_collector_num_in_ports_tensor_core                    1 # number of collector unit in ports (default = 1)
-gpgpu_operand_collector_num_in_ports_mem                    1 # number of collector unit in ports (default = 1)
-gpgpu_operand_collector_num_in_ports_gen                    0 # number of collector unit in ports (default = 0)
-gpgpu_operand_collector_num_out_ports_sp                    4 # number of collector unit in ports (default = 1)
-gpgpu_operand_collector_num_out_ports_dp                    0 # number of collector unit in ports (default = 0)
-gpgpu_operand_collector_num_out_ports_sfu                    1 # number of collector unit in ports (default = 1)
-gpgpu_operand_collector_num_out_ports_int                    0 # number of collector unit in ports (default = 0)
-gpgpu_operand_collector_num_out_ports_tensor_core                    1 # number of collector unit in ports (default = 1)
-gpgpu_operand_collector_num_out_ports_mem                    1 # number of collector unit in ports (default = 1)
-gpgpu_operand_collector_num_out_ports_gen                    0 # number of collector unit in ports (default = 0)
-gpgpu_coalesce_arch                   13 # Coalescing arch (GT200 = 13, Fermi = 20)
-gpgpu_num_sched_per_core                    2 # Number of warp schedulers per core
-gpgpu_max_insn_issue_per_warp                    2 # Max number of instructions that can be issued per warp in one cycle by scheduler (either 1 or 2)
-gpgpu_dual_issue_diff_exec_units                    1 # should dual issue use two different execution unit resources (Default = 1)
-gpgpu_simt_core_sim_order                    1 # Select the simulation order of cores in a cluster (0=Fix, 1=Round-Robin)
-gpgpu_pipeline_widths 4,0,0,1,1,4,0,0,1,1,6 # Pipeline widths ID_OC_SP,ID_OC_DP,ID_OC_INT,ID_OC_SFU,ID_OC_MEM,OC_EX_SP,OC_EX_DP,OC_EX_INT,OC_EX_SFU,OC_EX_MEM,EX_WB,ID_OC_TENSOR_CORE,OC_EX_TENSOR_CORE
-gpgpu_tensor_core_avail                    0 # Tensor Core Available (default=0)
-gpgpu_num_sp_units                     4 # Number of SP units (default=1)
-gpgpu_num_dp_units                     0 # Number of DP units (default=0)
-gpgpu_num_int_units                    0 # Number of INT units (default=0)
-gpgpu_num_sfu_units                    1 # Number of SF units (default=1)
-gpgpu_num_tensor_core_units                    0 # Number of tensor_core units (default=1)
-gpgpu_num_mem_units                    1 # Number if ldst units (default=1) WARNING: not hooked up to anything
-gpgpu_scheduler                      gto # Scheduler configuration: < lrr | gto | two_level_active > If two_level_active:<num_active_warps>:<inner_prioritization>:<outer_prioritization>For complete list of prioritization values see shader.h enum scheduler_prioritization_typeDefault: gto
-gpgpu_concurrent_kernel_sm                    0 # Support concurrent kernels on a SM (default = disabled)
-gpgpu_perfect_inst_const_cache                    0 # perfect inst and const cache mode, so all inst and const hits in the cache(default = disabled)
-gpgpu_inst_fetch_throughput                    1 # the number of fetched intruction per warp each cycle
-gpgpu_reg_file_port_throughput                    1 # the number ports of the register file
-specialized_unit_1         0,4,4,4,4,BRA # specialized unit config {<enabled>,<num_units>:<latency>:<initiation>,<ID_OC_SPEC>:<OC_EX_SPEC>,<NAME>}
-specialized_unit_2         0,4,4,4,4,BRA # specialized unit config {<enabled>,<num_units>:<latency>:<initiation>,<ID_OC_SPEC>:<OC_EX_SPEC>,<NAME>}
-specialized_unit_3         0,4,4,4,4,BRA # specialized unit config {<enabled>,<num_units>:<latency>:<initiation>,<ID_OC_SPEC>:<OC_EX_SPEC>,<NAME>}
-specialized_unit_4         0,4,4,4,4,BRA # specialized unit config {<enabled>,<num_units>:<latency>:<initiation>,<ID_OC_SPEC>:<OC_EX_SPEC>,<NAME>}
-specialized_unit_5         0,4,4,4,4,BRA # specialized unit config {<enabled>,<num_units>:<latency>:<initiation>,<ID_OC_SPEC>:<OC_EX_SPEC>,<NAME>}
-specialized_unit_6         0,4,4,4,4,BRA # specialized unit config {<enabled>,<num_units>:<latency>:<initiation>,<ID_OC_SPEC>:<OC_EX_SPEC>,<NAME>}
-specialized_unit_7         0,4,4,4,4,BRA # specialized unit config {<enabled>,<num_units>:<latency>:<initiation>,<ID_OC_SPEC>:<OC_EX_SPEC>,<NAME>}
-specialized_unit_8         0,4,4,4,4,BRA # specialized unit config {<enabled>,<num_units>:<latency>:<initiation>,<ID_OC_SPEC>:<OC_EX_SPEC>,<NAME>}
-gpgpu_perf_sim_memcpy                    1 # Fill the L2 cache on memcpy
-gpgpu_simple_dram_model                    0 # simple_dram_model with fixed latency and BW
-gpgpu_dram_scheduler                    1 # 0 = fifo, 1 = FR-FCFS (defaul)
-gpgpu_dram_partition_queues              8:8:8:8 # i2$:$2d:d2$:$2i
-l2_ideal                               0 # Use a ideal L2 cache that always hit
-gpgpu_cache:dl2     N:64:128:16,L:B:m:W:L,A:1024:1024,4:0,32 # unified banked L2 data cache config  {<nsets>:<bsize>:<assoc>,<rep>:<wr>:<alloc>:<wr_alloc>,<mshr>:<N>:<merge>,<mq>}
-gpgpu_cache:dl2_texture_only                    0 # L2 cache used for texture only
-gpgpu_n_mem                            8 # number of memory modules (e.g. memory controllers) in gpu
-gpgpu_n_sub_partition_per_mchannel                    2 # number of memory subpartition in each memory module
-gpgpu_n_mem_per_ctrlr                    1 # number of memory chips per memory controller
-gpgpu_memlatency_stat                   14 # track and display latency statistics 0x2 enables MC, 0x4 enables queue logs
-gpgpu_frfcfs_dram_sched_queue_size                   64 # 0 = unlimited (default); # entries per chip
-gpgpu_dram_return_queue_size                  116 # 0 = unlimited (default); # entries per chip
-gpgpu_dram_buswidth                    4 # default = 4 bytes (8 bytes per cycle at DDR)
-gpgpu_dram_burst_length                    8 # Burst length of each DRAM request (default = 4 data bus cycle)
-dram_data_command_freq_ratio                    4 # Frequency ratio between DRAM data bus and command bus (default = 2 times, i.e. DDR)
-gpgpu_dram_timing_opt nbk=16:CCD=2:RRD=6:RCD=12:RAS=28:RP=12:RC=40: CL=12:WL=4:CDLR=5:WR=12:nbkgrp=1:CCDL=0:RTPL=0 # DRAM timing parameters = {nbk:tCCD:tRRD:tRCD:tRAS:tRP:tRC:CL:WL:tCDLR:tWR:nbkgrp:tCCDL:tRTPL}
-gpgpu_l2_rop_latency                  120 # ROP queue latency (default 85)
-dram_latency                         100 # DRAM latency (default 30)
-dram_dual_bus_interface                    0 # dual_bus_interface (default = 0) 
-dram_bnk_indexing_policy                    0 # dram_bnk_indexing_policy (0 = normal indexing, 1 = Xoring with the higher bits) (Default = 0)
-dram_bnkgrp_indexing_policy                    0 # dram_bnkgrp_indexing_policy (0 = take higher bits, 1 = take lower bits) (Default = 0)
-dram_seperate_write_queue_enable                    0 # Seperate_Write_Queue_Enable
-dram_write_queue_size             32:28:16 # Write_Queue_Size
-dram_elimnate_rw_turnaround                    0 # elimnate_rw_turnaround i.e set tWTR and tRTW = 0
-icnt_flit_size                        32 # icnt_flit_size
-gpgpu_mem_addr_mapping dramid@8;00000000.00000000.00000000.00000000.0000RRRR.RRRRRRRR.RBBBCCCC.BCCSSSSS # mapping memory address to dram model {dramid@<start bit>;<memory address map>}
-gpgpu_mem_addr_test                    0 # run sweep test to check address mapping for aliased address
-gpgpu_mem_address_mask                    1 # 0 = old addressing mask, 1 = new addressing mask, 2 = new add. mask + flipped bank sel and chip sel bits
-gpgpu_memory_partition_indexing                    0 # 0 = no indexing, 1 = bitwise xoring, 2 = IPoly, 3 = custom indexing
-accelwattch_xml_file accelwattch_sass_sim.xml # AccelWattch XML file
-power_simulation_enabled                    0 # Turn on power simulator (1=On, 0=Off)
-power_per_cycle_dump                    0 # Dump detailed power output each cycle
-hw_perf_file_name            hw_perf.csv # Hardware Performance Statistics file
-hw_perf_bench_name                       # Kernel Name in Hardware Performance Statistics file
-power_simulation_mode                    0 # Switch performance counter input for power simulation (0=Sim, 1=HW, 2=HW-Sim Hybrid)
-dvfs_enabled                           0 # Turn on DVFS for power model
-aggregate_power_stats                    0 # Accumulate power across all kernels
-accelwattch_hybrid_perfsim_L1_RH                    0 # Get L1 Read Hits for Accelwattch-Hybrid from Accel-Sim
-accelwattch_hybrid_perfsim_L1_RM                    0 # Get L1 Read Misses for Accelwattch-Hybrid from Accel-Sim
-accelwattch_hybrid_perfsim_L1_WH                    0 # Get L1 Write Hits for Accelwattch-Hybrid from Accel-Sim
-accelwattch_hybrid_perfsim_L1_WM                    0 # Get L1 Write Misses for Accelwattch-Hybrid from Accel-Sim
-accelwattch_hybrid_perfsim_L2_RH                    0 # Get L2 Read Hits for Accelwattch-Hybrid from Accel-Sim
-accelwattch_hybrid_perfsim_L2_RM                    0 # Get L2 Read Misses for Accelwattch-Hybrid from Accel-Sim
-accelwattch_hybrid_perfsim_L2_WH                    0 # Get L2 Write Hits for Accelwattch-Hybrid from Accel-Sim
-accelwattch_hybrid_perfsim_L2_WM                    0 # Get L2 Write Misses for Accelwattch-Hybrid from Accel-Sim
-accelwattch_hybrid_perfsim_CC_ACC                    0 # Get Constant Cache Acesses for Accelwattch-Hybrid from Accel-Sim
-accelwattch_hybrid_perfsim_SHARED_ACC                    0 # Get Shared Memory Acesses for Accelwattch-Hybrid from Accel-Sim
-accelwattch_hybrid_perfsim_DRAM_RD                    0 # Get DRAM Reads for Accelwattch-Hybrid from Accel-Sim
-accelwattch_hybrid_perfsim_DRAM_WR                    0 # Get DRAM Writes for Accelwattch-Hybrid from Accel-Sim
-accelwattch_hybrid_perfsim_NOC                    0 # Get Interconnect Acesses for Accelwattch-Hybrid from Accel-Sim
-accelwattch_hybrid_perfsim_PIPE_DUTY                    0 # Get Pipeline Duty Cycle Acesses for Accelwattch-Hybrid from Accel-Sim
-accelwattch_hybrid_perfsim_NUM_SM_IDLE                    0 # Get Number of Idle SMs for Accelwattch-Hybrid from Accel-Sim
-accelwattch_hybrid_perfsim_CYCLES                    0 # Get Executed Cycles for Accelwattch-Hybrid from Accel-Sim
-accelwattch_hybrid_perfsim_VOLTAGE                    0 # Get Chip Voltage for Accelwattch-Hybrid from Accel-Sim
-power_trace_enabled                    0 # produce a file for the power trace (1=On, 0=Off)
-power_trace_zlevel                     6 # Compression level of the power trace output log (0=no comp, 9=highest)
-steady_power_levels_enabled                    0 # produce a file for the steady power levels (1=On, 0=Off)
-steady_state_definition                  8:4 # allowed deviation:number of samples
-gpgpu_max_cycle                        0 # terminates gpu simulation early (0 = no limit)
-gpgpu_max_insn                         0 # terminates gpu simulation early (0 = no limit)
-gpgpu_max_cta                          0 # terminates gpu simulation early (0 = no limit)
-gpgpu_max_completed_cta                    0 # terminates gpu simulation early (0 = no limit)
-gpgpu_runtime_stat                   500 # display runtime statistics such as dram utilization {<freq>:<flag>}
-liveness_message_freq                    1 # Minimum number of seconds between simulation liveness messages (0 = always print)
-gpgpu_compute_capability_major                    7 # Major compute capability version number
-gpgpu_compute_capability_minor                    0 # Minor compute capability version number
-gpgpu_flush_l1_cache                    0 # Flush L1 cache at the end of each kernel call
-gpgpu_flush_l2_cache                    0 # Flush L2 cache at the end of each kernel call
-gpgpu_deadlock_detect                    1 # Stop the simulation at deadlock (1=on (default), 0=off)
-gpgpu_ptx_instruction_classification                    0 # if enabled will classify ptx instruction types per kernel (Max 255 kernels now)
-gpgpu_ptx_sim_mode                     0 # Select between Performance (default) or Functional simulation (1)
-gpgpu_clock_domains 1607.0:2962.0:1607.0:2750.0 # Clock Domain Frequencies in MhZ {<Core Clock>:<ICNT Clock>:<L2 Clock>:<DRAM Clock>}
-gpgpu_max_concurrent_kernel                   32 # maximum kernels that can run concurrently on GPU, set this value according to max resident grids for your compute capability
-gpgpu_cflog_interval                    0 # Interval between each snapshot in control flow logger
-visualizer_enabled                     0 # Turn on visualizer output (1=On, 0=Off)
-visualizer_outputfile                 NULL # Specifies the output log file for visualizer
-visualizer_zlevel                      6 # Compression level of the visualizer output log (0=no comp, 9=highest)
-gpgpu_stack_size_limit                 1024 # GPU thread stack size
-gpgpu_heap_size_limit              8388608 # GPU malloc heap size 
-gpgpu_runtime_sync_depth_limit                    2 # GPU device runtime synchronize depth
-gpgpu_runtime_pending_launch_count_limit                 2048 # GPU device runtime pending launch count
-trace_enabled                          0 # Turn on traces
-trace_components                    none # comma seperated list of traces to enable. Complete list found in trace_streams.tup. Default none
-trace_sampling_core                    0 # The core which is printed using CORE_DPRINTF. Default 0
-trace_sampling_memory_partition                   -1 # The memory partition which is printed using MEMPART_DPRINTF. Default -1 (i.e. all)
-enable_ptx_file_line_stats                    1 # Turn on PTX source line statistic profiling. (1 = On)
-ptx_line_stats_filename gpgpu_inst_stats.txt # Output file for PTX source line statistics.
-gpgpu_kernel_launch_latency                    0 # Kernel launch latency in cycles. Default: 0
-gpgpu_cdp_enabled                      0 # Turn on CDP
-gpgpu_TB_launch_latency                    0 # thread block launch latency in cycles. Default: 0
DRAM Timing Options:
nbk                                    16 # number of banks
CCD                                     2 # column to column delay
RRD                                     6 # minimal delay between activation of rows in different banks
RCD                                    12 # row to column delay
RAS                                    28 # time needed to activate row
RP                                     12 # time needed to precharge (deactivate) row
RC                                     40 # row cycle time
CDLR                                    5 # switching from write to read (changes tWTR)
WR                                     12 # last data-in to row precharge
CL                                     12 # CAS latency
WL                                      4 # Write latency
nbkgrp                                  1 # number of bank groups
CCDL                                    0 # column to column delay between accesses to different bank groups
RTPL                                    0 # read to precharge delay between accesses to different bank groups
Total number of memory sub partition = 16
addr_dec_mask[CHIP]  = 0000000000000700 	high:11 low:8
addr_dec_mask[BK]    = 0000000000038080 	high:18 low:7
addr_dec_mask[ROW]   = 000000007ffc0000 	high:31 low:18
addr_dec_mask[COL]   = 000000000000787f 	high:15 low:0
addr_dec_mask[BURST] = 000000000000001f 	high:5 low:0
sub_partition_id_mask = 0000000000000080
GPGPU-Sim uArch: clock freqs: 1607000000.000000:2962000000.000000:1607000000.000000:2750000000.000000
GPGPU-Sim uArch: clock periods: 0.00000000062227753578:0.00000000033760972316:0.00000000062227753578:0.00000000036363636364
*** Initializing Memory Statistics ***
GPGPU-Sim uArch: interconnect node map (shaderID+MemID to icntID)
GPGPU-Sim uArch: Memory nodes ID start from index: 20
GPGPU-Sim uArch:    0   1   2   3   4   5   6
GPGPU-Sim uArch:    7   8   9  10  11  12  13
GPGPU-Sim uArch:   14  15  16  17  18  19  20
GPGPU-Sim uArch:   21  22  23  24  25  26  27
GPGPU-Sim uArch:   28  29  30  31  32  33  34
GPGPU-Sim uArch:   35  36  37  38  39  40  41
GPGPU-Sim uArch:   42  43  44  45  46  47  48
GPGPU-Sim uArch:   49
GPGPU-Sim uArch: interconnect node reverse map (icntID to shaderID+MemID)
GPGPU-Sim uArch: Memory nodes start from ID: 20
GPGPU-Sim uArch:    0   1   2   3   4   5   6
GPGPU-Sim uArch:    7   8   9  10  11  12  13
GPGPU-Sim uArch:   14  15  16  17  18  19  20
GPGPU-Sim uArch:   21  22  23  24  25  26  27
GPGPU-Sim uArch:   28  29  30  31  32  33  34
GPGPU-Sim uArch:   35  36  37  38  39  40  41
GPGPU-Sim uArch:   42  43  44  45  46  47  48
GPGPU-Sim uArch:   49
1a59f2de6ffc29df983f1ea1c1c9d604  /benchrun/accelsim-ptx/babelstream/sm6_gtx1080/input-arraysize-102400-numtimes-1/CUDAStream
Extracting PTX file and ptxas options    1: CUDAStream.1.sm_30.ptx -arch=sm_30
GPGPU-Sim uArch: performance model initialization complete.
self exe links to: /benchrun/accelsim-ptx/babelstream/sm6_gtx1080/input-arraysize-102400-numtimes-1/CUDAStream
self exe links to: /benchrun/accelsim-ptx/babelstream/sm6_gtx1080/input-arraysize-102400-numtimes-1/CUDAStream
10.1
GPGPU-Sim PTX: __cudaRegisterFatBinary, fat_cubin_handle = 1, filename=default
self exe links to: /benchrun/accelsim-ptx/babelstream/sm6_gtx1080/input-arraysize-102400-numtimes-1/CUDAStream
Running md5sum using "md5sum /benchrun/accelsim-ptx/babelstream/sm6_gtx1080/input-arraysize-102400-numtimes-1/CUDAStream "
self exe links to: /benchrun/accelsim-ptx/babelstream/sm6_gtx1080/input-arraysize-102400-numtimes-1/CUDAStream
Extracting specific PTX file named CUDAStream.1.sm_30.ptx 
GPGPU-Sim PTX: __cudaRegisterFunction _Z11init_kernelIdEvPT_S1_S1_S0_S0_S0_ : hostFun 0x0x55a674e104f1, fat_cubin_handle = 1
GPGPU-Sim PTX: Parsing CUDAStream.1.sm_30.ptx
GPGPU-Sim PTX: instruction assembly for function '_Z11copy_kernelIfEvPKT_PS0_'...   done.
GPGPU-Sim PTX: instruction assembly for function '_Z10add_kernelIfEvPKT_S2_PS0_'...   done.
GPGPU-Sim PTX: instruction assembly for function '_Z10mul_kernelIfEvPT_PKS0_'...   done.
GPGPU-Sim PTX: instruction assembly for function '_Z12triad_kernelIfEvPT_PKS0_S3_'...   done.
GPGPU-Sim PTX: instruction assembly for function '_Z14nstream_kernelIfEvPT_PKS0_S3_'...   done.
GPGPU-Sim PTX: allocating shared region for "_ZZ10dot_kernelIfEvPKT_S2_PS0_iE6tb_sum" from 0x0 to 0x1000 (shared memory space)
GPGPU-Sim PTX: instruction assembly for function '_Z10dot_kernelIfEvPKT_S2_PS0_i'...   done.
GPGPU-Sim PTX: instruction assembly for function '_Z11init_kernelIfEvPT_S1_S1_S0_S0_S0_'...   done.
GPGPU-Sim PTX: instruction assembly for function '_Z11copy_kernelIdEvPKT_PS0_'...   done.
GPGPU-Sim PTX: instruction assembly for function '_Z10add_kernelIdEvPKT_S2_PS0_'...   done.
GPGPU-Sim PTX: instruction assembly for function '_Z10mul_kernelIdEvPT_PKS0_'...   done.
GPGPU-Sim PTX: instruction assembly for function '_Z12triad_kernelIdEvPT_PKS0_S3_'...   done.
GPGPU-Sim PTX: instruction assembly for function '_Z14nstream_kernelIdEvPT_PKS0_S3_'...   done.
GPGPU-Sim PTX: allocating shared region for "_ZZ10dot_kernelIdEvPKT_S2_PS0_iE6tb_sum" from 0x0 to 0x2000 (shared memory space)
GPGPU-Sim PTX: instruction assembly for function '_Z10dot_kernelIdEvPKT_S2_PS0_i'...   done.
GPGPU-Sim PTX: instruction assembly for function '_Z11init_kernelIdEvPT_S1_S1_S0_S0_S0_'...   done.
GPGPU-Sim PTX: finished parsing EMBEDDED .ptx file CUDAStream.1.sm_30.ptx
GPGPU-Sim PTX: loading globals with explicit initializers... 
GPGPU-Sim PTX: finished loading globals (0 bytes total).
GPGPU-Sim PTX: loading constants with explicit initializers...  done.
GPGPU-Sim PTX: Loading PTXInfo from CUDAStream.1.sm_30.ptx
GPGPU-Sim PTX: Kernel '_Z11init_kernelIdEvPT_S1_S1_S0_S0_S0_' : regs=14, lmem=0, smem=0, cmem=368
GPGPU-Sim PTX: Kernel '_Z10dot_kernelIdEvPKT_S2_PS0_i' : regs=12, lmem=0, smem=8192, cmem=348
GPGPU-Sim PTX: Kernel '_Z14nstream_kernelIdEvPT_PKS0_S3_' : regs=12, lmem=0, smem=0, cmem=352
GPGPU-Sim PTX: Kernel '_Z12triad_kernelIdEvPT_PKS0_S3_' : regs=10, lmem=0, smem=0, cmem=352
GPGPU-Sim PTX: Kernel '_Z10mul_kernelIdEvPT_PKS0_' : regs=8, lmem=0, smem=0, cmem=344
GPGPU-Sim PTX: Kernel '_Z10add_kernelIdEvPKT_S2_PS0_' : regs=10, lmem=0, smem=0, cmem=344
GPGPU-Sim PTX: Kernel '_Z11copy_kernelIdEvPKT_PS0_' : regs=6, lmem=0, smem=0, cmem=336
GPGPU-Sim PTX: Kernel '_Z11init_kernelIfEvPT_S1_S1_S0_S0_S0_' : regs=10, lmem=0, smem=0, cmem=356
GPGPU-Sim PTX: Kernel '_Z10dot_kernelIfEvPKT_S2_PS0_i' : regs=12, lmem=0, smem=4096, cmem=348
GPGPU-Sim PTX: Kernel '_Z14nstream_kernelIfEvPT_PKS0_S3_' : regs=10, lmem=0, smem=0, cmem=348
GPGPU-Sim PTX: Kernel '_Z12triad_kernelIfEvPT_PKS0_S3_' : regs=8, lmem=0, smem=0, cmem=348
GPGPU-Sim PTX: Kernel '_Z10mul_kernelIfEvPT_PKS0_' : regs=6, lmem=0, smem=0, cmem=336
GPGPU-Sim PTX: Kernel '_Z10add_kernelIfEvPKT_S2_PS0_' : regs=8, lmem=0, smem=0, cmem=344
GPGPU-Sim PTX: Kernel '_Z11copy_kernelIfEvPKT_PS0_' : regs=6, lmem=0, smem=0, cmem=336
GPGPU-Sim PTX: __cudaRegisterFunction _Z10dot_kernelIdEvPKT_S2_PS0_i : hostFun 0x0x55a674e104bf, fat_cubin_handle = 1
GPGPU-Sim PTX: __cudaRegisterFunction _Z14nstream_kernelIdEvPT_PKS0_S3_ : hostFun 0x0x55a674e10491, fat_cubin_handle = 1
GPGPU-Sim PTX: __cudaRegisterFunction _Z12triad_kernelIdEvPT_PKS0_S3_ : hostFun 0x0x55a674e10463, fat_cubin_handle = 1
GPGPU-Sim PTX: __cudaRegisterFunction _Z10mul_kernelIdEvPT_PKS0_ : hostFun 0x0x55a674e1043d, fat_cubin_handle = 1
GPGPU-Sim PTX: __cudaRegisterFunction _Z10add_kernelIdEvPKT_S2_PS0_ : hostFun 0x0x55a674e1040f, fat_cubin_handle = 1
GPGPU-Sim PTX: __cudaRegisterFunction _Z11copy_kernelIdEvPKT_PS0_ : hostFun 0x0x55a674e103e9, fat_cubin_handle = 1
GPGPU-Sim PTX: __cudaRegisterFunction _Z11init_kernelIfEvPT_S1_S1_S0_S0_S0_ : hostFun 0x0x55a674e1039d, fat_cubin_handle = 1
GPGPU-Sim PTX: __cudaRegisterFunction _Z10dot_kernelIfEvPKT_S2_PS0_i : hostFun 0x0x55a674e1036b, fat_cubin_handle = 1
GPGPU-Sim PTX: __cudaRegisterFunction _Z14nstream_kernelIfEvPT_PKS0_S3_ : hostFun 0x0x55a674e1033d, fat_cubin_handle = 1
GPGPU-Sim PTX: __cudaRegisterFunction _Z12triad_kernelIfEvPT_PKS0_S3_ : hostFun 0x0x55a674e1030f, fat_cubin_handle = 1
GPGPU-Sim PTX: __cudaRegisterFunction _Z10mul_kernelIfEvPT_PKS0_ : hostFun 0x0x55a674e102e9, fat_cubin_handle = 1
GPGPU-Sim PTX: __cudaRegisterFunction _Z10add_kernelIfEvPKT_S2_PS0_ : hostFun 0x0x55a674e102bb, fat_cubin_handle = 1
GPGPU-Sim PTX: __cudaRegisterFunction _Z11copy_kernelIfEvPKT_PS0_ : hostFun 0x0x55a674e10295, fat_cubin_handle = 1
BabelStream
Version: 4.0
Implementation: CUDA
Running kernels 1 times
Precision: double
Array size: 0.8 MB (=0.0 GB)
Total size: 2.5 MB (=0.0 GB)
Using CUDA device GPGPU-Sim_vGPGPU-Sim Simulator Version 4.2.0 
Driver: 10010
GPGPU-Sim PTX: Setting up arguments for 8 bytes starting at 0x7ffeb66c6448..
GPGPU-Sim PTX: Setting up arguments for 8 bytes starting at 0x7ffeb66c6440..
GPGPU-Sim PTX: Setting up arguments for 8 bytes starting at 0x7ffeb66c6438..
GPGPU-Sim PTX: Setting up arguments for 8 bytes starting at 0x7ffeb66c6430..
GPGPU-Sim PTX: Setting up arguments for 8 bytes starting at 0x7ffeb66c6428..
GPGPU-Sim PTX: Setting up arguments for 8 bytes starting at 0x7ffeb66c6420..

GPGPU-Sim PTX: cudaLaunch for 0x0x55a674e104f1 (mode=performance simulation) on stream 0
GPGPU-Sim PTX: finding reconvergence points for '_Z11init_kernelIdEvPT_S1_S1_S0_S0_S0_'...
GPGPU-Sim PTX: Finding dominators for '_Z11init_kernelIdEvPT_S1_S1_S0_S0_S0_'...
GPGPU-Sim PTX: Finding immediate dominators for '_Z11init_kernelIdEvPT_S1_S1_S0_S0_S0_'...
GPGPU-Sim PTX: Finding postdominators for '_Z11init_kernelIdEvPT_S1_S1_S0_S0_S0_'...
GPGPU-Sim PTX: Finding immediate postdominators for '_Z11init_kernelIdEvPT_S1_S1_S0_S0_S0_'...
GPGPU-Sim PTX: pre-decoding instructions for '_Z11init_kernelIdEvPT_S1_S1_S0_S0_S0_'...
GPGPU-Sim PTX: reconvergence points for _Z11init_kernelIdEvPT_S1_S1_S0_S0_S0_...
GPGPU-Sim PTX: ... end of reconvergence points for _Z11init_kernelIdEvPT_S1_S1_S0_S0_S0_
GPGPU-Sim PTX: ... done pre-decoding instructions for '_Z11init_kernelIdEvPT_S1_S1_S0_S0_S0_'.
GPGPU-Sim PTX: pushing kernel '_Z11init_kernelIdEvPT_S1_S1_S0_S0_S0_' to stream 0, gridDim= (100,1,1) blockDim = (1024,1,1) 
GPGPU-Sim uArch: Shader 0 bind to kernel 1 '_Z11init_kernelIdEvPT_S1_S1_S0_S0_S0_'
GPGPU-Sim uArch: CTA/core = 2, limited by: threads
GPGPU-Sim uArch: Shader 1 bind to kernel 1 '_Z11init_kernelIdEvPT_S1_S1_S0_S0_S0_'
GPGPU-Sim uArch: Shader 2 bind to kernel 1 '_Z11init_kernelIdEvPT_S1_S1_S0_S0_S0_'
GPGPU-Sim uArch: Shader 3 bind to kernel 1 '_Z11init_kernelIdEvPT_S1_S1_S0_S0_S0_'
GPGPU-Sim uArch: Shader 4 bind to kernel 1 '_Z11init_kernelIdEvPT_S1_S1_S0_S0_S0_'
GPGPU-Sim uArch: Shader 5 bind to kernel 1 '_Z11init_kernelIdEvPT_S1_S1_S0_S0_S0_'
GPGPU-Sim uArch: Shader 6 bind to kernel 1 '_Z11init_kernelIdEvPT_S1_S1_S0_S0_S0_'
GPGPU-Sim uArch: Shader 7 bind to kernel 1 '_Z11init_kernelIdEvPT_S1_S1_S0_S0_S0_'
GPGPU-Sim uArch: Shader 8 bind to kernel 1 '_Z11init_kernelIdEvPT_S1_S1_S0_S0_S0_'
GPGPU-Sim uArch: Shader 9 bind to kernel 1 '_Z11init_kernelIdEvPT_S1_S1_S0_S0_S0_'
GPGPU-Sim uArch: Shader 10 bind to kernel 1 '_Z11init_kernelIdEvPT_S1_S1_S0_S0_S0_'
GPGPU-Sim uArch: Shader 11 bind to kernel 1 '_Z11init_kernelIdEvPT_S1_S1_S0_S0_S0_'
GPGPU-Sim uArch: Shader 12 bind to kernel 1 '_Z11init_kernelIdEvPT_S1_S1_S0_S0_S0_'
GPGPU-Sim uArch: Shader 13 bind to kernel 1 '_Z11init_kernelIdEvPT_S1_S1_S0_S0_S0_'
GPGPU-Sim uArch: Shader 14 bind to kernel 1 '_Z11init_kernelIdEvPT_S1_S1_S0_S0_S0_'
GPGPU-Sim uArch: Shader 15 bind to kernel 1 '_Z11init_kernelIdEvPT_S1_S1_S0_S0_S0_'
GPGPU-Sim uArch: Shader 16 bind to kernel 1 '_Z11init_kernelIdEvPT_S1_S1_S0_S0_S0_'
GPGPU-Sim uArch: Shader 17 bind to kernel 1 '_Z11init_kernelIdEvPT_S1_S1_S0_S0_S0_'
GPGPU-Sim uArch: Shader 18 bind to kernel 1 '_Z11init_kernelIdEvPT_S1_S1_S0_S0_S0_'
GPGPU-Sim uArch: Shader 19 bind to kernel 1 '_Z11init_kernelIdEvPT_S1_S1_S0_S0_S0_'
Destroy streams for kernel 1: size 0
kernel_name = _Z11init_kernelIdEvPT_S1_S1_S0_S0_S0_ 
kernel_launch_uid = 1 
gpu_sim_cycle = 26116
gpu_sim_insn = 2150400
gpu_ipc =      82.3403
gpu_tot_sim_cycle = 26116
gpu_tot_sim_insn = 2150400
gpu_tot_ipc =      82.3403
gpu_tot_issued_cta = 100
gpu_occupancy = 68.5479% 
gpu_tot_occupancy = 68.5479% 
max_total_param_size = 0
gpu_stall_dramfull = 153015
gpu_stall_icnt2sh    = 290
partiton_level_parallism =       0.7382
partiton_level_parallism_total  =       0.7382
partiton_level_parallism_util =       2.3501
partiton_level_parallism_util_total  =       2.3501
L2_BW  =      69.9738 GB/Sec
L2_BW_total  =      69.9738 GB/Sec
gpu_total_sim_rate=119466

========= Core cache stats =========
L1I_cache:
	L1I_total_cache_accesses = 35200
	L1I_total_cache_misses = 2037
	L1I_total_cache_miss_rate = 0.0579
	L1I_total_cache_pending_hits = 0
	L1I_total_cache_reservation_fails = 4745
L1D_cache:
	L1D_cache_core[0]: Access = 0, Miss = 0, Miss_rate = -nan, Pending_hits = 0, Reservation_fails = 0
	L1D_cache_core[1]: Access = 0, Miss = 0, Miss_rate = -nan, Pending_hits = 0, Reservation_fails = 0
	L1D_cache_core[2]: Access = 0, Miss = 0, Miss_rate = -nan, Pending_hits = 0, Reservation_fails = 0
	L1D_cache_core[3]: Access = 0, Miss = 0, Miss_rate = -nan, Pending_hits = 0, Reservation_fails = 0
	L1D_cache_core[4]: Access = 0, Miss = 0, Miss_rate = -nan, Pending_hits = 0, Reservation_fails = 0
	L1D_cache_core[5]: Access = 0, Miss = 0, Miss_rate = -nan, Pending_hits = 0, Reservation_fails = 0
	L1D_cache_core[6]: Access = 0, Miss = 0, Miss_rate = -nan, Pending_hits = 0, Reservation_fails = 0
	L1D_cache_core[7]: Access = 0, Miss = 0, Miss_rate = -nan, Pending_hits = 0, Reservation_fails = 0
	L1D_cache_core[8]: Access = 0, Miss = 0, Miss_rate = -nan, Pending_hits = 0, Reservation_fails = 0
	L1D_cache_core[9]: Access = 0, Miss = 0, Miss_rate = -nan, Pending_hits = 0, Reservation_fails = 0
	L1D_cache_core[10]: Access = 0, Miss = 0, Miss_rate = -nan, Pending_hits = 0, Reservation_fails = 0
	L1D_cache_core[11]: Access = 0, Miss = 0, Miss_rate = -nan, Pending_hits = 0, Reservation_fails = 0
	L1D_cache_core[12]: Access = 0, Miss = 0, Miss_rate = -nan, Pending_hits = 0, Reservation_fails = 0
	L1D_cache_core[13]: Access = 0, Miss = 0, Miss_rate = -nan, Pending_hits = 0, Reservation_fails = 0
	L1D_cache_core[14]: Access = 0, Miss = 0, Miss_rate = -nan, Pending_hits = 0, Reservation_fails = 0
	L1D_cache_core[15]: Access = 0, Miss = 0, Miss_rate = -nan, Pending_hits = 0, Reservation_fails = 0
	L1D_cache_core[16]: Access = 0, Miss = 0, Miss_rate = -nan, Pending_hits = 0, Reservation_fails = 0
	L1D_cache_core[17]: Access = 0, Miss = 0, Miss_rate = -nan, Pending_hits = 0, Reservation_fails = 0
	L1D_cache_core[18]: Access = 0, Miss = 0, Miss_rate = -nan, Pending_hits = 0, Reservation_fails = 0
	L1D_cache_core[19]: Access = 0, Miss = 0, Miss_rate = -nan, Pending_hits = 0, Reservation_fails = 0
	L1D_total_cache_accesses = 0
	L1D_total_cache_misses = 0
	L1D_total_cache_pending_hits = 0
	L1D_total_cache_reservation_fails = 0
	L1D_cache_data_port_util = 0.000
	L1D_cache_fill_port_util = 0.000
L1C_cache:
	L1C_total_cache_accesses = 19200
	L1C_total_cache_misses = 1280
	L1C_total_cache_miss_rate = 0.0667
	L1C_total_cache_pending_hits = 0
	L1C_total_cache_reservation_fails = 3592
L1T_cache:
	L1T_total_cache_accesses = 0
	L1T_total_cache_misses = 0
	L1T_total_cache_pending_hits = 0
	L1T_total_cache_reservation_fails = 0

Total_core_cache_stats:
	Total_core_cache_stats_breakdown[GLOBAL_ACC_R][HIT] = 0
	Total_core_cache_stats_breakdown[GLOBAL_ACC_R][HIT_RESERVED] = 0
	Total_core_cache_stats_breakdown[GLOBAL_ACC_R][MISS] = 0
	Total_core_cache_stats_breakdown[GLOBAL_ACC_R][RESERVATION_FAIL] = 0
	Total_core_cache_stats_breakdown[GLOBAL_ACC_R][SECTOR_MISS] = 0
	Total_core_cache_stats_breakdown[GLOBAL_ACC_R][MSHR_HIT] = 0
	Total_core_cache_stats_breakdown[LOCAL_ACC_R][HIT] = 0
	Total_core_cache_stats_breakdown[LOCAL_ACC_R][HIT_RESERVED] = 0
	Total_core_cache_stats_breakdown[LOCAL_ACC_R][MISS] = 0
	Total_core_cache_stats_breakdown[LOCAL_ACC_R][RESERVATION_FAIL] = 0
	Total_core_cache_stats_breakdown[LOCAL_ACC_R][SECTOR_MISS] = 0
	Total_core_cache_stats_breakdown[LOCAL_ACC_R][MSHR_HIT] = 0
	Total_core_cache_stats_breakdown[CONST_ACC_R][HIT] = 17920
	Total_core_cache_stats_breakdown[CONST_ACC_R][HIT_RESERVED] = 0
	Total_core_cache_stats_breakdown[CONST_ACC_R][MISS] = 1280
	Total_core_cache_stats_breakdown[CONST_ACC_R][RESERVATION_FAIL] = 3592
	Total_core_cache_stats_breakdown[CONST_ACC_R][SECTOR_MISS] = 0
	Total_core_cache_stats_breakdown[CONST_ACC_R][MSHR_HIT] = 1260
	Total_core_cache_stats_breakdown[TEXTURE_ACC_R][HIT] = 0
	Total_core_cache_stats_breakdown[TEXTURE_ACC_R][HIT_RESERVED] = 0
	Total_core_cache_stats_breakdown[TEXTURE_ACC_R][MISS] = 0
	Total_core_cache_stats_breakdown[TEXTURE_ACC_R][RESERVATION_FAIL] = 0
	Total_core_cache_stats_breakdown[TEXTURE_ACC_R][SECTOR_MISS] = 0
	Total_core_cache_stats_breakdown[TEXTURE_ACC_R][MSHR_HIT] = 0
	Total_core_cache_stats_breakdown[GLOBAL_ACC_W][HIT] = 0
	Total_core_cache_stats_breakdown[GLOBAL_ACC_W][HIT_RESERVED] = 0
	Total_core_cache_stats_breakdown[GLOBAL_ACC_W][MISS] = 0
	Total_core_cache_stats_breakdown[GLOBAL_ACC_W][RESERVATION_FAIL] = 0
	Total_core_cache_stats_breakdown[GLOBAL_ACC_W][SECTOR_MISS] = 0
	Total_core_cache_stats_breakdown[GLOBAL_ACC_W][MSHR_HIT] = 0
	Total_core_cache_stats_breakdown[LOCAL_ACC_W][HIT] = 0
	Total_core_cache_stats_breakdown[LOCAL_ACC_W][HIT_RESERVED] = 0
	Total_core_cache_stats_breakdown[LOCAL_ACC_W][MISS] = 0
	Total_core_cache_stats_breakdown[LOCAL_ACC_W][RESERVATION_FAIL] = 0
	Total_core_cache_stats_breakdown[LOCAL_ACC_W][SECTOR_MISS] = 0
	Total_core_cache_stats_breakdown[LOCAL_ACC_W][MSHR_HIT] = 0
	Total_core_cache_stats_breakdown[L1_WRBK_ACC][HIT] = 0
	Total_core_cache_stats_breakdown[L1_WRBK_ACC][HIT_RESERVED] = 0
	Total_core_cache_stats_breakdown[L1_WRBK_ACC][MISS] = 0
	Total_core_cache_stats_breakdown[L1_WRBK_ACC][RESERVATION_FAIL] = 0
	Total_core_cache_stats_breakdown[L1_WRBK_ACC][SECTOR_MISS] = 0
	Total_core_cache_stats_breakdown[L1_WRBK_ACC][MSHR_HIT] = 0
	Total_core_cache_stats_breakdown[L2_WRBK_ACC][HIT] = 0
	Total_core_cache_stats_breakdown[L2_WRBK_ACC][HIT_RESERVED] = 0
	Total_core_cache_stats_breakdown[L2_WRBK_ACC][MISS] = 0
	Total_core_cache_stats_breakdown[L2_WRBK_ACC][RESERVATION_FAIL] = 0
	Total_core_cache_stats_breakdown[L2_WRBK_ACC][SECTOR_MISS] = 0
	Total_core_cache_stats_breakdown[L2_WRBK_ACC][MSHR_HIT] = 0
	Total_core_cache_stats_breakdown[INST_ACC_R][HIT] = 33163
	Total_core_cache_stats_breakdown[INST_ACC_R][HIT_RESERVED] = 0
	Total_core_cache_stats_breakdown[INST_ACC_R][MISS] = 2037
	Total_core_cache_stats_breakdown[INST_ACC_R][RESERVATION_FAIL] = 4745
	Total_core_cache_stats_breakdown[INST_ACC_R][SECTOR_MISS] = 0
	Total_core_cache_stats_breakdown[INST_ACC_R][MSHR_HIT] = 1977
	Total_core_cache_stats_breakdown[L1_WR_ALLOC_R][HIT] = 0
	Total_core_cache_stats_breakdown[L1_WR_ALLOC_R][HIT_RESERVED] = 0
	Total_core_cache_stats_breakdown[L1_WR_ALLOC_R][MISS] = 0
	Total_core_cache_stats_breakdown[L1_WR_ALLOC_R][RESERVATION_FAIL] = 0
	Total_core_cache_stats_breakdown[L1_WR_ALLOC_R][SECTOR_MISS] = 0
	Total_core_cache_stats_breakdown[L1_WR_ALLOC_R][MSHR_HIT] = 0
	Total_core_cache_stats_breakdown[L2_WR_ALLOC_R][HIT] = 0
	Total_core_cache_stats_breakdown[L2_WR_ALLOC_R][HIT_RESERVED] = 0
	Total_core_cache_stats_breakdown[L2_WR_ALLOC_R][MISS] = 0
	Total_core_cache_stats_breakdown[L2_WR_ALLOC_R][RESERVATION_FAIL] = 0
	Total_core_cache_stats_breakdown[L2_WR_ALLOC_R][SECTOR_MISS] = 0
	Total_core_cache_stats_breakdown[L2_WR_ALLOC_R][MSHR_HIT] = 0
	Total_core_cache_stats_breakdown[CONST_ACC_R][TOTAL_ACCESS] = 19200
	Total_core_cache_stats_breakdown[INST_ACC_R][TOTAL_ACCESS] = 35200

Total_core_cache_fail_stats:
	Total_core_cache_fail_stats_breakdown[CONST_ACC_R][MSHR_MERGE_ENRTY_FAIL] = 3592
	Total_core_cache_fail_stats_breakdown[INST_ACC_R][MSHR_MERGE_ENRTY_FAIL] = 4745
ctas_completed 100, Shader 0 warp_id issue ditsribution:
warp_id:
0, 1, 2, 3, 4, 5, 6, 7, 8, 9, 10, 11, 12, 13, 14, 15, 16, 17, 18, 19, 20, 21, 22, 23, 24, 25, 26, 27, 28, 29, 30, 31, 32, 33, 34, 35, 36, 37, 38, 39, 40, 41, 42, 43, 44, 45, 46, 47, 48, 49, 50, 51, 52, 53, 54, 55, 56, 57, 58, 59, 60, 61, 62, 63, 
distro:
63, 63, 63, 63, 63, 63, 63, 63, 63, 63, 63, 63, 63, 63, 63, 63, 63, 63, 63, 63, 63, 63, 63, 63, 63, 63, 63, 63, 63, 63, 63, 63, 42, 42, 42, 42, 42, 42, 42, 42, 42, 42, 42, 42, 42, 42, 42, 42, 42, 42, 42, 42, 42, 42, 42, 42, 42, 42, 42, 42, 42, 42, 42, 42, 
gpgpu_n_tot_thrd_icount = 2150400
gpgpu_n_tot_w_icount = 67200
gpgpu_n_stall_shd_mem = 442802
gpgpu_n_mem_read_local = 0
gpgpu_n_mem_write_local = 0
gpgpu_n_mem_read_global = 0
gpgpu_n_mem_write_global = 19200
gpgpu_n_mem_texture = 0
gpgpu_n_mem_const = 20
gpgpu_n_load_insn  = 0
gpgpu_n_store_insn = 307200
gpgpu_n_shmem_insn = 0
gpgpu_n_sstarr_insn = 0
gpgpu_n_tex_insn = 0
gpgpu_n_const_mem_insn = 0
gpgpu_n_param_mem_insn = 614400
gpgpu_n_shmem_bkconflict = 0
gpgpu_n_cache_bkconflict = 0
gpgpu_n_intrawarp_mshr_merge = 0
gpgpu_n_cmem_portconflict = 3592
gpgpu_stall_shd_mem[c_mem][resource_stall] = 3592
gpgpu_stall_shd_mem[s_mem][bk_conf] = 0
gpgpu_stall_shd_mem[gl_mem][resource_stall] = 0
gpgpu_stall_shd_mem[gl_mem][coal_stall] = 9600
gpgpu_stall_shd_mem[gl_mem][data_port_stall] = 0
gpu_reg_bank_conflict_stalls = 0
Warp Occupancy Distribution:
Stall:871378	W0_Idle:75046	W0_Scoreboard:2868	W1:0	W2:0	W3:0	W4:0	W5:0	W6:0	W7:0	W8:0	W9:0	W10:0	W11:0	W12:0	W13:0	W14:0	W15:0	W16:0	W17:0	W18:0	W19:0	W20:0	W21:0	W22:0	W23:0	W24:0	W25:0	W26:0	W27:0	W28:0	W29:0	W30:0	W31:0	W32:67200
single_issue_nums: WS0:33600	WS1:33600	
dual_issue_nums: WS0:0	WS1:0	
traffic_breakdown_coretomem[CONST_ACC_R] = 160 {8:20,}
traffic_breakdown_coretomem[GLOBAL_ACC_W] = 2611200 {136:19200,}
traffic_breakdown_coretomem[INST_ACC_R] = 480 {8:60,}
traffic_breakdown_memtocore[CONST_ACC_R] = 1440 {72:20,}
traffic_breakdown_memtocore[GLOBAL_ACC_W] = 153600 {8:19200,}
traffic_breakdown_memtocore[INST_ACC_R] = 8160 {136:60,}
maxmflatency = 3203 
max_icnt2mem_latency = 994 
maxmrqlatency = 2028 
max_icnt2sh_latency = 14 
averagemflatency = 992 
avg_icnt2mem_latency = 94 
avg_mrq_latency = 319 
avg_icnt2sh_latency = 4 
mrq_lat_table:3502 	42 	217 	815 	1264 	2962 	4797 	6852 	9081 	7568 	1304 	0 	0 	0 	0 	0 	0 	0 	0 	0 	0 	0 	0 	0 	0 	0 	0 	0 	0 	0 	0 	0 	
dq_lat_table:0 	0 	0 	0 	0 	0 	0 	0 	0 	0 	0 	0 	0 	0 	0 	0 	0 	0 	0 	0 	0 	0 	0 	0 	0 	0 	0 	0 	0 	0 	0 	0 	
mf_lat_table:0 	0 	0 	0 	0 	0 	0 	105 	2797 	7967 	7935 	416 	0 	0 	0 	0 	0 	0 	0 	0 	0 	0 	0 	0 	0 	0 	0 	0 	0 	0 	0 	0 	
icnt2mem_lat_table:0 	0 	369 	9348 	1976 	1257 	1611 	2034 	2303 	382 	0 	0 	0 	0 	0 	0 	0 	0 	0 	0 	0 	0 	0 	0 	
icnt2sh_lat_table:0 	0 	19197 	23 	0 	0 	0 	0 	0 	0 	0 	0 	0 	0 	0 	0 	0 	0 	0 	0 	0 	0 	0 	0 	
mf_lat_pw_table:0 	0 	0 	0 	0 	0 	0 	1 	1 	32 	17 	0 	0 	0 	0 	0 	0 	0 	0 	0 	0 	0 	0 	0 	0 	0 	0 	0 	0 	0 	0 	0 	
maximum concurrent accesses to same row:
dram[0]:        30        30        16        16        18        18        16        16        16        16        20        20        26        26        12        12 
dram[1]:        30        30        16        16        28        28        20        24        16        18        22        22        26        26        14        12 
dram[2]:        22        18        20        20        20        20        16        16        16        18        16        16        26        26        12        12 
dram[3]:        30        30        22        22        24        24        22        22        18        18        28        28        30        30        16        16 
dram[4]:        22        22        16        18        20        20        16        16        18        18        20        20        32        32        20        20 
dram[5]:        28        28        20        18        26        26        20        20        16        16        26        26        32        32        14        14 
dram[6]:        20        20        18        18        16        16        14        14        12        12        18        18        28        28        12        12 
dram[7]:        32        32        12        12        26        26        16        16        16        16        24        24        24        24        12        12 
maximum service time to same row:
dram[0]:      3975      3955      2369      2189      3504      3504      1596      1580      2440      2493      3037      3021      2961      2915      4902      4893 
dram[1]:      4327      4329      3566      3388      4355      4332      3094      3334      3264      3240      3296      3298      2593      2598      5435      5434 
dram[2]:      3970      2009      2170      2164      3746      3740      2263      2270      2719      2715      2483      2483      3107      3107      4792      4791 
dram[3]:      4486      4495      3176      3169      4107      4102      2508      2508      3422      3417      3950      3943      2736      2778      5234      5233 
dram[4]:      3823      3824      2483      2482      3838      3839      1848      1851      2678      2675      2911      2918      3819      3826      4560      4560 
dram[5]:      4298      4301      3289      3279      3824      3808      2790      2790      3376      3428      3435      3435      3714      3723      4906      4905 
dram[6]:      3727      3735      2494      2486      3175      3176      2055      2056      3402      3402      3068      3061      4136      4128      4481      4480 
dram[7]:      4680      4666      3085      3250      4151      4145      2186      2185      3411      3399      3594      3594      3287      3302      5740      5740 
average row accesses per activate:
dram[0]:  5.836364  5.818182  5.818182  5.714286  7.804878  8.000000  5.877551  5.877551  5.052631  5.333333  4.430769  4.721312  6.260870  6.697674  5.236363  5.142857 
dram[1]:  6.274510  6.173077  5.714286  5.818182  7.272727  8.000000  6.127660  6.857143  5.877551  6.127660  4.721312  4.721312  4.965517  4.721312  4.800000  5.236363 
dram[2]:  5.177419  4.938461  5.714286  5.614035  6.153846  6.400000  5.538462  5.760000  5.877551  5.877551  4.173913  4.173913  5.333333  5.333333  4.800000  4.800000 
dram[3]:  5.161290  5.161290  6.808511  6.808511  6.956522  7.272727  6.260870  6.260870  6.000000  6.127660  4.721312  4.800000  5.333333  5.333333  5.433962  5.433962 
dram[4]:  5.245902  5.245902  6.400000  6.530612  7.441861  7.619048  5.333333  5.538462  5.333333  5.333333  5.333333  5.333333  5.333333  5.333333  5.538462  5.538462 
dram[5]:  6.274510  6.530612  5.925926  6.037736  6.400000  6.530612  5.647059  5.647059  5.647059  5.647059  4.881356  4.965517  5.052631  5.142857  5.052631  5.052631 
dram[6]:  4.507042  4.507042  5.818182  5.614035  5.818182  5.818182  4.965517  4.721312  4.571429  4.571429  4.173913  4.173913  5.052631  5.236363  4.721312  4.721312 
dram[7]:  6.153846  6.037736  5.079365  5.161290  6.530612  6.400000  5.538462  5.538462  4.800000  4.881356  5.538462  5.877551  5.538462  5.647059  5.333333  5.433962 
average row locality = 38404/6952 = 5.524166
number of total memory accesses made:
dram[0]:         0         0         0         0         0         0         0         0         0         0         0         0         0         0         0         0 
dram[1]:         0         0         0         0         0         0         0         0         0         0         0         0         0         0         0         0 
dram[2]:         0         0         0         0         0         0         0         0         0         0         0         0         0         0         0         0 
dram[3]:         0         0         0         0         0         0         0         0         0         0         0         0         0         0         0         0 
dram[4]:         0         0         0         0         0         0         0         0         0         0         0         0         0         0         0         0 
dram[5]:         0         0         0         0         0         0         0         0         0         0         0         0         0         0         0         0 
dram[6]:         0         0         0         0         0         0         0         0         0         0         0         0         0         0         0         0 
dram[7]:         0         0         0         0         0         0         0         0         0         0         0         0         0         0         0         0 
total accesses: 0
min_bank_accesses = 0!
min_chip_accesses = 0!
number of total read accesses:
dram[0]:       644       640       640       640       640       640       576       576       576       576       576       576       576       576       576       576 
dram[1]:       640       644       640       640       640       640       576       576       576       576       576       576       576       576       576       576 
dram[2]:       644       644       640       640       640       640       576       576       576       576       576       576       576       576       576       576 
dram[3]:       640       640       640       640       640       640       576       576       576       576       576       576       576       576       576       576 
dram[4]:       640       640       640       640       640       640       576       576       576       576       576       576       576       576       576       576 
dram[5]:       640       640       640       640       640       640       576       576       576       576       576       576       576       576       576       576 
dram[6]:       640       640       640       640       640       640       576       576       576       576       576       576       576       576       576       576 
dram[7]:       640       640       640       640       640       640       576       576       576       576       576       576       576       576       576       576 
total dram reads = 76816
bank skew: 644/576 = 1.12
chip skew: 9608/9600 = 1.00
number of total write accesses:
dram[0]:       640       640       640       640       640       640       576       576       576       576       576       576       576       576       576       576 
dram[1]:       640       640       640       640       640       640       576       576       576       576       576       576       576       576       576       576 
dram[2]:       640       640       640       640       640       640       576       576       576       576       576       576       576       576       576       576 
dram[3]:       640       640       640       640       640       640       576       576       576       576       576       576       576       576       576       576 
dram[4]:       640       640       640       640       640       640       576       576       576       576       576       576       576       576       576       576 
dram[5]:       640       640       640       640       640       640       576       576       576       576       576       576       576       576       576       576 
dram[6]:       640       640       640       640       640       640       576       576       576       576       576       576       576       576       576       576 
dram[7]:       640       640       640       640       640       640       576       576       576       576       576       576       576       576       576       576 
total dram writes = 76800
bank skew: 640/576 = 1.11
chip skew: 9600/9600 = 1.00
average mf latency per bank:
dram[0]:        170       170       173       171       185       190       174       178       172       177       160       163       172       178       170       169
dram[1]:        181       181       185       189       185       189       187       191       181       185       177       181       182       180       187       192
dram[2]:        120       125       128       132       127       134       136       140       130       136       114       120       121       125       124       129
dram[3]:        117       124       139       143       125       130       128       134       137       142       125       127       126       130       127       132
dram[4]:         88        90        94        98        93        96        90        94        96        99        84        88        87        91       100       104
dram[5]:         96        99       106       108        91        94        98       100        94        98        88        91        92        95        98       101
dram[6]:         82        84        97       101        90        96        83        86        71        76        70        75        79        83        91        95
dram[7]:         98       101        95        96        92        95        94        98        91        95        92        95       107       111       107       110
maximum mf latency per bank:
dram[0]:       2460      2468      2519      2859      2855      2862      2320      2331      2678      2672      2264      2364      2461      2612      2152      2290
dram[1]:       2284      2435      2723      2817      3164      3203      2779      2787      2534      3003      2373      2631      2387      2394      2416      2552
dram[2]:       2202      2210      2467      2475      1986      1994      2290      2312      2055      2097      1860      2029      2360      2367      1702      1713
dram[3]:       2033      1925      2611      2714      2059      2074      2216      2225      2006      2079      2008      2189      1770      1724      1750      1857
dram[4]:       1772      1780      2245      2269      1790      1802      1502      1633      1935      1943      1513      1623      1808      1819      1988      2040
dram[5]:       1604      1630      1947      2032      1616      1722      1392      1470      1944      1967      1829      1837      1647      1718      1627      1778
dram[6]:       2060      2074      2031      2431      1807      1816      1367      1301      1407      1510      1481      1497      1750      1692      1676      1682
dram[7]:       1838      1714      1581      1715      1834      1492      2194      2362      1724      1732      2017      2023      1854      1817      1702      1714
Memory Partition 0: 
Cache L2_bank_000:
MSHR contents

Cache L2_bank_001:
MSHR contents

In Dram Latency Queue (total = 0): 
DRAM[0]: 16 bks, busW=4 BL=8 CL=12, tRRD=6 tCCD=2, tRCD=12 tRAS=28 tRP=12 tRC=40
n_cmd=44690 n_nop=24132 n_act=838 n_pre=822 n_ref_event=0 n_req=4801 n_rd=4 n_rd_L2_A=9600 n_write=9600 n_wr_bk=0 bw_util=0.8594
n_activity=42648 dram_eff=0.9006
bk0: 644a 13637i bk1: 640a 13826i bk2: 640a 12826i bk3: 640a 13324i bk4: 640a 13167i bk5: 640a 12676i bk6: 576a 15753i bk7: 576a 15183i bk8: 576a 15898i bk9: 576a 15309i bk10: 576a 16824i bk11: 576a 16664i bk12: 576a 15743i bk13: 576a 16278i bk14: 576a 16035i bk15: 576a 15909i 

------------------------------------------------------------------------

Row_Buffer_Locality = 0.825661
Row_Buffer_Locality_read = 0.999583
Row_Buffer_Locality_write = 0.651667
Bank_Level_Parallism = 11.284964
Bank_Level_Parallism_Col = 10.995728
Bank_Level_Parallism_Ready = 6.169283
write_to_read_ratio_blp_rw_average = 0.471836
GrpLevelPara = 1.000000 

BW Util details:
bwutil = 0.859432 
total_CMD = 44690 
util_bw = 38408 
Wasted_Col = 4207 
Wasted_Row = 3 
Idle = 2072 

BW Util Bottlenecks: 
RCDc_limit = 12 
RCDWRc_limit = 654 
WTRc_limit = 21875 
RTWc_limit = 21766 
CCDLc_limit = 0 
rwq = 0 
CCDLc_limit_alone = 0 
WTRc_limit_alone = 21875 
RTWc_limit_alone = 21766 

Commands details: 
total_CMD = 44690 
n_nop = 24132 
Read = 4 
Write = 9600 
L2_Alloc = 9600 
L2_WB = 0 
n_act = 838 
n_pre = 822 
n_ref = 0 
n_req = 4801 
total_req = 19204 

Dual Bus Interface Util: 
issued_total_row = 1660 
issued_total_col = 19204 
Row_Bus_Util =  0.037145 
CoL_Bus_Util = 0.429716 
Either_Row_CoL_Bus_Util = 0.460013 
Issued_on_Two_Bus_Simul_Util = 0.006847 
issued_two_Eff = 0.014885 
queue_avg = 60.186665 


dram_util_bins: 0 0 0 0 0 0 0 0 0 0
dram_eff_bins: 0 0 0 0 0 0 0 0 0 0
mrqq: max=64 avg=60.1867
Memory Partition 1: 
Cache L2_bank_002:
MSHR contents

Cache L2_bank_003:
MSHR contents

In Dram Latency Queue (total = 0): 
DRAM[1]: 16 bks, busW=4 BL=8 CL=12, tRRD=6 tCCD=2, tRCD=12 tRAS=28 tRP=12 tRC=40
n_cmd=44690 n_nop=24141 n_act=839 n_pre=823 n_ref_event=0 n_req=4801 n_rd=4 n_rd_L2_A=9600 n_write=9600 n_wr_bk=0 bw_util=0.8594
n_activity=42701 dram_eff=0.8995
bk0: 640a 13200i bk1: 644a 13236i bk2: 640a 13009i bk3: 640a 12617i bk4: 640a 12655i bk5: 640a 12252i bk6: 576a 15970i bk7: 576a 15531i bk8: 576a 16403i bk9: 576a 15591i bk10: 576a 16549i bk11: 576a 16390i bk12: 576a 16032i bk13: 576a 16214i bk14: 576a 16548i bk15: 576a 15918i 

------------------------------------------------------------------------

Row_Buffer_Locality = 0.825245
Row_Buffer_Locality_read = 0.999167
Row_Buffer_Locality_write = 0.651250
Bank_Level_Parallism = 11.292859
Bank_Level_Parallism_Col = 11.004219
Bank_Level_Parallism_Ready = 6.148879
write_to_read_ratio_blp_rw_average = 0.477231
GrpLevelPara = 1.000000 

BW Util details:
bwutil = 0.859432 
total_CMD = 44690 
util_bw = 38408 
Wasted_Col = 4258 
Wasted_Row = 5 
Idle = 2019 

BW Util Bottlenecks: 
RCDc_limit = 17 
RCDWRc_limit = 712 
WTRc_limit = 21946 
RTWc_limit = 21875 
CCDLc_limit = 0 
rwq = 0 
CCDLc_limit_alone = 0 
WTRc_limit_alone = 21946 
RTWc_limit_alone = 21875 

Commands details: 
total_CMD = 44690 
n_nop = 24141 
Read = 4 
Write = 9600 
L2_Alloc = 9600 
L2_WB = 0 
n_act = 839 
n_pre = 823 
n_ref = 0 
n_req = 4801 
total_req = 19204 

Dual Bus Interface Util: 
issued_total_row = 1662 
issued_total_col = 19204 
Row_Bus_Util =  0.037190 
CoL_Bus_Util = 0.429716 
Either_Row_CoL_Bus_Util = 0.459812 
Issued_on_Two_Bus_Simul_Util = 0.007093 
issued_two_Eff = 0.015427 
queue_avg = 60.304520 


dram_util_bins: 0 0 0 0 0 0 0 0 0 0
dram_eff_bins: 0 0 0 0 0 0 0 0 0 0
mrqq: max=64 avg=60.3045
Memory Partition 2: 
Cache L2_bank_004:
MSHR contents

Cache L2_bank_005:
MSHR contents

In Dram Latency Queue (total = 0): 
DRAM[2]: 16 bks, busW=4 BL=8 CL=12, tRRD=6 tCCD=2, tRCD=12 tRAS=28 tRP=12 tRC=40
n_cmd=44690 n_nop=24050 n_act=908 n_pre=892 n_ref_event=0 n_req=4802 n_rd=8 n_rd_L2_A=9600 n_write=9600 n_wr_bk=0 bw_util=0.8596
n_activity=42638 dram_eff=0.901
bk0: 644a 13516i bk1: 644a 13558i bk2: 640a 13415i bk3: 640a 13169i bk4: 640a 12902i bk5: 640a 12937i bk6: 576a 14891i bk7: 576a 14894i bk8: 576a 15392i bk9: 576a 15341i bk10: 576a 16243i bk11: 576a 16073i bk12: 576a 15618i bk13: 576a 15444i bk14: 576a 15614i bk15: 576a 15556i 

------------------------------------------------------------------------

Row_Buffer_Locality = 0.810912
Row_Buffer_Locality_read = 0.999167
Row_Buffer_Locality_write = 0.622500
Bank_Level_Parallism = 11.393865
Bank_Level_Parallism_Col = 11.069603
Bank_Level_Parallism_Ready = 6.246117
write_to_read_ratio_blp_rw_average = 0.473234
GrpLevelPara = 1.000000 

BW Util details:
bwutil = 0.859611 
total_CMD = 44690 
util_bw = 38416 
Wasted_Col = 4189 
Wasted_Row = 3 
Idle = 2082 

BW Util Bottlenecks: 
RCDc_limit = 12 
RCDWRc_limit = 667 
WTRc_limit = 21680 
RTWc_limit = 21866 
CCDLc_limit = 0 
rwq = 0 
CCDLc_limit_alone = 0 
WTRc_limit_alone = 21680 
RTWc_limit_alone = 21866 

Commands details: 
total_CMD = 44690 
n_nop = 24050 
Read = 8 
Write = 9600 
L2_Alloc = 9600 
L2_WB = 0 
n_act = 908 
n_pre = 892 
n_ref = 0 
n_req = 4802 
total_req = 19208 

Dual Bus Interface Util: 
issued_total_row = 1800 
issued_total_col = 19208 
Row_Bus_Util =  0.040277 
CoL_Bus_Util = 0.429805 
Either_Row_CoL_Bus_Util = 0.461848 
Issued_on_Two_Bus_Simul_Util = 0.008235 
issued_two_Eff = 0.017829 
queue_avg = 60.180534 


dram_util_bins: 0 0 0 0 0 0 0 0 0 0
dram_eff_bins: 0 0 0 0 0 0 0 0 0 0
mrqq: max=64 avg=60.1805
Memory Partition 3: 
Cache L2_bank_006:
MSHR contents

Cache L2_bank_007:
MSHR contents

In Dram Latency Queue (total = 0): 
DRAM[3]: 16 bks, busW=4 BL=8 CL=12, tRRD=6 tCCD=2, tRCD=12 tRAS=28 tRP=12 tRC=40
n_cmd=44690 n_nop=24192 n_act=830 n_pre=814 n_ref_event=0 n_req=4800 n_rd=0 n_rd_L2_A=9600 n_write=9600 n_wr_bk=0 bw_util=0.8593
n_activity=42638 dram_eff=0.9006
bk0: 640a 13580i bk1: 640a 13309i bk2: 640a 12554i bk3: 640a 12491i bk4: 640a 12823i bk5: 640a 12753i bk6: 576a 15752i bk7: 576a 15530i bk8: 576a 15495i bk9: 576a 15367i bk10: 576a 16645i bk11: 576a 16701i bk12: 576a 15635i bk13: 576a 15785i bk14: 576a 16596i bk15: 576a 16475i 

------------------------------------------------------------------------

Row_Buffer_Locality = 0.827083
Row_Buffer_Locality_read = 0.999167
Row_Buffer_Locality_write = 0.655000
Bank_Level_Parallism = 11.317592
Bank_Level_Parallism_Col = 11.017972
Bank_Level_Parallism_Ready = 6.169420
write_to_read_ratio_blp_rw_average = 0.478960
GrpLevelPara = 1.000000 

BW Util details:
bwutil = 0.859253 
total_CMD = 44690 
util_bw = 38400 
Wasted_Col = 4225 
Wasted_Row = 3 
Idle = 2062 

BW Util Bottlenecks: 
RCDc_limit = 10 
RCDWRc_limit = 636 
WTRc_limit = 21602 
RTWc_limit = 21847 
CCDLc_limit = 0 
rwq = 0 
CCDLc_limit_alone = 0 
WTRc_limit_alone = 21602 
RTWc_limit_alone = 21847 

Commands details: 
total_CMD = 44690 
n_nop = 24192 
Read = 0 
Write = 9600 
L2_Alloc = 9600 
L2_WB = 0 
n_act = 830 
n_pre = 814 
n_ref = 0 
n_req = 4800 
total_req = 19200 

Dual Bus Interface Util: 
issued_total_row = 1644 
issued_total_col = 19200 
Row_Bus_Util =  0.036787 
CoL_Bus_Util = 0.429626 
Either_Row_CoL_Bus_Util = 0.458671 
Issued_on_Two_Bus_Simul_Util = 0.007742 
issued_two_Eff = 0.016880 
queue_avg = 60.230274 


dram_util_bins: 0 0 0 0 0 0 0 0 0 0
dram_eff_bins: 0 0 0 0 0 0 0 0 0 0
mrqq: max=64 avg=60.2303
Memory Partition 4: 
Cache L2_bank_008:
MSHR contents

Cache L2_bank_009:
MSHR contents

In Dram Latency Queue (total = 0): 
DRAM[4]: 16 bks, busW=4 BL=8 CL=12, tRRD=6 tCCD=2, tRCD=12 tRAS=28 tRP=12 tRC=40
n_cmd=44690 n_nop=24130 n_act=840 n_pre=824 n_ref_event=0 n_req=4800 n_rd=0 n_rd_L2_A=9600 n_write=9600 n_wr_bk=0 bw_util=0.8593
n_activity=42610 dram_eff=0.9012
bk0: 640a 13065i bk1: 640a 12835i bk2: 640a 13077i bk3: 640a 13043i bk4: 640a 13137i bk5: 640a 13103i bk6: 576a 16297i bk7: 576a 16083i bk8: 576a 15515i bk9: 576a 15656i bk10: 576a 15853i bk11: 576a 15519i bk12: 576a 16106i bk13: 576a 16041i bk14: 576a 15667i bk15: 576a 15559i 

------------------------------------------------------------------------

Row_Buffer_Locality = 0.825000
Row_Buffer_Locality_read = 0.999583
Row_Buffer_Locality_write = 0.650417
Bank_Level_Parallism = 11.346581
Bank_Level_Parallism_Col = 11.047754
Bank_Level_Parallism_Ready = 6.204370
write_to_read_ratio_blp_rw_average = 0.475673
GrpLevelPara = 1.000000 

BW Util details:
bwutil = 0.859253 
total_CMD = 44690 
util_bw = 38400 
Wasted_Col = 4197 
Wasted_Row = 3 
Idle = 2090 

BW Util Bottlenecks: 
RCDc_limit = 0 
RCDWRc_limit = 740 
WTRc_limit = 21631 
RTWc_limit = 21720 
CCDLc_limit = 0 
rwq = 0 
CCDLc_limit_alone = 0 
WTRc_limit_alone = 21631 
RTWc_limit_alone = 21720 

Commands details: 
total_CMD = 44690 
n_nop = 24130 
Read = 0 
Write = 9600 
L2_Alloc = 9600 
L2_WB = 0 
n_act = 840 
n_pre = 824 
n_ref = 0 
n_req = 4800 
total_req = 19200 

Dual Bus Interface Util: 
issued_total_row = 1664 
issued_total_col = 19200 
Row_Bus_Util =  0.037234 
CoL_Bus_Util = 0.429626 
Either_Row_CoL_Bus_Util = 0.460058 
Issued_on_Two_Bus_Simul_Util = 0.006802 
issued_two_Eff = 0.014786 
queue_avg = 58.219177 


dram_util_bins: 0 0 0 0 0 0 0 0 0 0
dram_eff_bins: 0 0 0 0 0 0 0 0 0 0
mrqq: max=64 avg=58.2192
Memory Partition 5: 
Cache L2_bank_010:
MSHR contents

Cache L2_bank_011:
MSHR contents

In Dram Latency Queue (total = 0): 
DRAM[5]: 16 bks, busW=4 BL=8 CL=12, tRRD=6 tCCD=2, tRCD=12 tRAS=28 tRP=12 tRC=40
n_cmd=44690 n_nop=24138 n_act=854 n_pre=838 n_ref_event=0 n_req=4800 n_rd=0 n_rd_L2_A=9600 n_write=9600 n_wr_bk=0 bw_util=0.8593
n_activity=42639 dram_eff=0.9006
bk0: 640a 13764i bk1: 640a 13543i bk2: 640a 12718i bk3: 640a 12851i bk4: 640a 12917i bk5: 640a 12709i bk6: 576a 15423i bk7: 576a 15409i bk8: 576a 15856i bk9: 576a 15734i bk10: 576a 16493i bk11: 576a 16510i bk12: 576a 16074i bk13: 576a 16588i bk14: 576a 16473i bk15: 576a 16373i 

------------------------------------------------------------------------

Row_Buffer_Locality = 0.822083
Row_Buffer_Locality_read = 0.999583
Row_Buffer_Locality_write = 0.644583
Bank_Level_Parallism = 11.272989
Bank_Level_Parallism_Col = 10.970016
Bank_Level_Parallism_Ready = 6.199627
write_to_read_ratio_blp_rw_average = 0.473040
GrpLevelPara = 1.000000 

BW Util details:
bwutil = 0.859253 
total_CMD = 44690 
util_bw = 38400 
Wasted_Col = 4226 
Wasted_Row = 3 
Idle = 2061 

BW Util Bottlenecks: 
RCDc_limit = 0 
RCDWRc_limit = 675 
WTRc_limit = 21715 
RTWc_limit = 21668 
CCDLc_limit = 0 
rwq = 0 
CCDLc_limit_alone = 0 
WTRc_limit_alone = 21715 
RTWc_limit_alone = 21668 

Commands details: 
total_CMD = 44690 
n_nop = 24138 
Read = 0 
Write = 9600 
L2_Alloc = 9600 
L2_WB = 0 
n_act = 854 
n_pre = 838 
n_ref = 0 
n_req = 4800 
total_req = 19200 

Dual Bus Interface Util: 
issued_total_row = 1692 
issued_total_col = 19200 
Row_Bus_Util =  0.037861 
CoL_Bus_Util = 0.429626 
Either_Row_CoL_Bus_Util = 0.459879 
Issued_on_Two_Bus_Simul_Util = 0.007608 
issued_two_Eff = 0.016543 
queue_avg = 58.875767 


dram_util_bins: 0 0 0 0 0 0 0 0 0 0
dram_eff_bins: 0 0 0 0 0 0 0 0 0 0
mrqq: max=64 avg=58.8758
Memory Partition 6: 
Cache L2_bank_012:
MSHR contents

Cache L2_bank_013:
MSHR contents

In Dram Latency Queue (total = 0): 
DRAM[6]: 16 bks, busW=4 BL=8 CL=12, tRRD=6 tCCD=2, tRCD=12 tRAS=28 tRP=12 tRC=40
n_cmd=44690 n_nop=23916 n_act=981 n_pre=965 n_ref_event=0 n_req=4800 n_rd=0 n_rd_L2_A=9600 n_write=9600 n_wr_bk=0 bw_util=0.8593
n_activity=42788 dram_eff=0.8974
bk0: 640a 14236i bk1: 640a 14284i bk2: 640a 13179i bk3: 640a 13140i bk4: 640a 13783i bk5: 640a 13648i bk6: 576a 16323i bk7: 576a 16097i bk8: 576a 16883i bk9: 576a 16556i bk10: 576a 16163i bk11: 576a 15721i bk12: 576a 16008i bk13: 576a 16164i bk14: 576a 16033i bk15: 576a 15896i 

------------------------------------------------------------------------

Row_Buffer_Locality = 0.795625
Row_Buffer_Locality_read = 0.999583
Row_Buffer_Locality_write = 0.591667
Bank_Level_Parallism = 11.125731
Bank_Level_Parallism_Col = 10.782345
Bank_Level_Parallism_Ready = 6.119816
write_to_read_ratio_blp_rw_average = 0.468862
GrpLevelPara = 1.000000 

BW Util details:
bwutil = 0.859253 
total_CMD = 44690 
util_bw = 38400 
Wasted_Col = 4350 
Wasted_Row = 18 
Idle = 1922 

BW Util Bottlenecks: 
RCDc_limit = 0 
RCDWRc_limit = 907 
WTRc_limit = 21774 
RTWc_limit = 21168 
CCDLc_limit = 0 
rwq = 0 
CCDLc_limit_alone = 0 
WTRc_limit_alone = 21774 
RTWc_limit_alone = 21168 

Commands details: 
total_CMD = 44690 
n_nop = 23916 
Read = 0 
Write = 9600 
L2_Alloc = 9600 
L2_WB = 0 
n_act = 981 
n_pre = 965 
n_ref = 0 
n_req = 4800 
total_req = 19200 

Dual Bus Interface Util: 
issued_total_row = 1946 
issued_total_col = 19200 
Row_Bus_Util =  0.043544 
CoL_Bus_Util = 0.429626 
Either_Row_CoL_Bus_Util = 0.464847 
Issued_on_Two_Bus_Simul_Util = 0.008324 
issued_two_Eff = 0.017907 
queue_avg = 54.558449 


dram_util_bins: 0 0 0 0 0 0 0 0 0 0
dram_eff_bins: 0 0 0 0 0 0 0 0 0 0
mrqq: max=64 avg=54.5584
Memory Partition 7: 
Cache L2_bank_014:
MSHR contents
MSHR: tag=0xc00c7f00, atomic=0 1 entries : 0x7f68d8577170 :  mf: uid=101133, sid15:w63, part=7, addr=0xc00c7f00, load , size=128, unknown  status = IN_PARTITION_DRAM (26115), 

Cache L2_bank_015:
MSHR contents
MSHR: tag=0xc00c7f80, atomic=0 1 entries : 0x7f68d829afa0 :  mf: uid=101132, sid15:w63, part=7, addr=0xc00c7f80, load , size=128, unknown  status = IN_PARTITION_DRAM (26115), 

In Dram Latency Queue (total = 0): 
DRAM[7]: 16 bks, busW=4 BL=8 CL=12, tRRD=6 tCCD=2, tRCD=12 tRAS=28 tRP=12 tRC=40
n_cmd=44690 n_nop=24123 n_act=863 n_pre=847 n_ref_event=0 n_req=4800 n_rd=0 n_rd_L2_A=9594 n_write=9600 n_wr_bk=0 bw_util=0.859
n_activity=42748 dram_eff=0.898
bk0: 638a 13612i bk1: 636a 13670i bk2: 640a 13403i bk3: 640a 13265i bk4: 640a 13425i bk5: 640a 13261i bk6: 576a 16852i bk7: 576a 16743i bk8: 576a 16039i bk9: 576a 16173i bk10: 576a 15817i bk11: 576a 16035i bk12: 576a 15731i bk13: 576a 15772i bk14: 576a 16320i bk15: 576a 16282i 

------------------------------------------------------------------------

Row_Buffer_Locality = 0.820208
Row_Buffer_Locality_read = 1.000000
Row_Buffer_Locality_write = 0.640417
Bank_Level_Parallism = 11.180524
Bank_Level_Parallism_Col = 10.883581
Bank_Level_Parallism_Ready = 6.129482
write_to_read_ratio_blp_rw_average = 0.473295
GrpLevelPara = 1.000000 

BW Util details:
bwutil = 0.858984 
total_CMD = 44690 
util_bw = 38388 
Wasted_Col = 4286 
Wasted_Row = 39 
Idle = 1977 

BW Util Bottlenecks: 
RCDc_limit = 0 
RCDWRc_limit = 707 
WTRc_limit = 21661 
RTWc_limit = 21325 
CCDLc_limit = 0 
rwq = 0 
CCDLc_limit_alone = 0 
WTRc_limit_alone = 21661 
RTWc_limit_alone = 21325 

Commands details: 
total_CMD = 44690 
n_nop = 24123 
Read = 0 
Write = 9600 
L2_Alloc = 9594 
L2_WB = 0 
n_act = 863 
n_pre = 847 
n_ref = 0 
n_req = 4800 
total_req = 19194 

Dual Bus Interface Util: 
issued_total_row = 1710 
issued_total_col = 19194 
Row_Bus_Util =  0.038264 
CoL_Bus_Util = 0.429492 
Either_Row_CoL_Bus_Util = 0.460215 
Issued_on_Two_Bus_Simul_Util = 0.007541 
issued_two_Eff = 0.016385 
queue_avg = 57.028240 


dram_util_bins: 0 0 0 0 0 0 0 0 0 0
dram_eff_bins: 0 0 0 0 0 0 0 0 0 0
mrqq: max=64 avg=57.0282

========= L2 cache stats =========
L2_cache_bank[0]: Access = 1220, Miss = 1201, Miss_rate = 0.984, Pending_hits = 19, Reservation_fails = 26
L2_cache_bank[1]: Access = 1200, Miss = 1200, Miss_rate = 1.000, Pending_hits = 0, Reservation_fails = 33
L2_cache_bank[2]: Access = 1200, Miss = 1200, Miss_rate = 1.000, Pending_hits = 0, Reservation_fails = 27
L2_cache_bank[3]: Access = 1220, Miss = 1201, Miss_rate = 0.984, Pending_hits = 19, Reservation_fails = 30
L2_cache_bank[4]: Access = 1220, Miss = 1201, Miss_rate = 0.984, Pending_hits = 19, Reservation_fails = 24
L2_cache_bank[5]: Access = 1220, Miss = 1201, Miss_rate = 0.984, Pending_hits = 19, Reservation_fails = 23
L2_cache_bank[6]: Access = 1200, Miss = 1200, Miss_rate = 1.000, Pending_hits = 0, Reservation_fails = 23
L2_cache_bank[7]: Access = 1200, Miss = 1200, Miss_rate = 1.000, Pending_hits = 0, Reservation_fails = 25
L2_cache_bank[8]: Access = 1200, Miss = 1200, Miss_rate = 1.000, Pending_hits = 0, Reservation_fails = 22
L2_cache_bank[9]: Access = 1200, Miss = 1200, Miss_rate = 1.000, Pending_hits = 0, Reservation_fails = 17
L2_cache_bank[10]: Access = 1200, Miss = 1200, Miss_rate = 1.000, Pending_hits = 0, Reservation_fails = 13
L2_cache_bank[11]: Access = 1200, Miss = 1200, Miss_rate = 1.000, Pending_hits = 0, Reservation_fails = 9
L2_cache_bank[12]: Access = 1200, Miss = 1200, Miss_rate = 1.000, Pending_hits = 0, Reservation_fails = 11
L2_cache_bank[13]: Access = 1200, Miss = 1200, Miss_rate = 1.000, Pending_hits = 0, Reservation_fails = 10
L2_cache_bank[14]: Access = 1200, Miss = 1200, Miss_rate = 1.000, Pending_hits = 0, Reservation_fails = 17
L2_cache_bank[15]: Access = 1200, Miss = 1200, Miss_rate = 1.000, Pending_hits = 0, Reservation_fails = 19
L2_total_cache_accesses = 19280
L2_total_cache_misses = 19204
L2_total_cache_miss_rate = 0.9961
L2_total_cache_pending_hits = 76
L2_total_cache_reservation_fails = 329
L2_total_cache_breakdown:
	L2_cache_stats_breakdown[GLOBAL_ACC_R][HIT] = 0
	L2_cache_stats_breakdown[GLOBAL_ACC_R][HIT_RESERVED] = 0
	L2_cache_stats_breakdown[GLOBAL_ACC_R][MISS] = 0
	L2_cache_stats_breakdown[GLOBAL_ACC_R][RESERVATION_FAIL] = 0
	L2_cache_stats_breakdown[GLOBAL_ACC_R][SECTOR_MISS] = 0
	L2_cache_stats_breakdown[GLOBAL_ACC_R][MSHR_HIT] = 0
	L2_cache_stats_breakdown[LOCAL_ACC_R][HIT] = 0
	L2_cache_stats_breakdown[LOCAL_ACC_R][HIT_RESERVED] = 0
	L2_cache_stats_breakdown[LOCAL_ACC_R][MISS] = 0
	L2_cache_stats_breakdown[LOCAL_ACC_R][RESERVATION_FAIL] = 0
	L2_cache_stats_breakdown[LOCAL_ACC_R][SECTOR_MISS] = 0
	L2_cache_stats_breakdown[LOCAL_ACC_R][MSHR_HIT] = 0
	L2_cache_stats_breakdown[CONST_ACC_R][HIT] = 0
	L2_cache_stats_breakdown[CONST_ACC_R][HIT_RESERVED] = 19
	L2_cache_stats_breakdown[CONST_ACC_R][MISS] = 1
	L2_cache_stats_breakdown[CONST_ACC_R][RESERVATION_FAIL] = 0
	L2_cache_stats_breakdown[CONST_ACC_R][SECTOR_MISS] = 0
	L2_cache_stats_breakdown[CONST_ACC_R][MSHR_HIT] = 19
	L2_cache_stats_breakdown[TEXTURE_ACC_R][HIT] = 0
	L2_cache_stats_breakdown[TEXTURE_ACC_R][HIT_RESERVED] = 0
	L2_cache_stats_breakdown[TEXTURE_ACC_R][MISS] = 0
	L2_cache_stats_breakdown[TEXTURE_ACC_R][RESERVATION_FAIL] = 0
	L2_cache_stats_breakdown[TEXTURE_ACC_R][SECTOR_MISS] = 0
	L2_cache_stats_breakdown[TEXTURE_ACC_R][MSHR_HIT] = 0
	L2_cache_stats_breakdown[GLOBAL_ACC_W][HIT] = 0
	L2_cache_stats_breakdown[GLOBAL_ACC_W][HIT_RESERVED] = 0
	L2_cache_stats_breakdown[GLOBAL_ACC_W][MISS] = 19200
	L2_cache_stats_breakdown[GLOBAL_ACC_W][RESERVATION_FAIL] = 329
	L2_cache_stats_breakdown[GLOBAL_ACC_W][SECTOR_MISS] = 0
	L2_cache_stats_breakdown[GLOBAL_ACC_W][MSHR_HIT] = 0
	L2_cache_stats_breakdown[LOCAL_ACC_W][HIT] = 0
	L2_cache_stats_breakdown[LOCAL_ACC_W][HIT_RESERVED] = 0
	L2_cache_stats_breakdown[LOCAL_ACC_W][MISS] = 0
	L2_cache_stats_breakdown[LOCAL_ACC_W][RESERVATION_FAIL] = 0
	L2_cache_stats_breakdown[LOCAL_ACC_W][SECTOR_MISS] = 0
	L2_cache_stats_breakdown[LOCAL_ACC_W][MSHR_HIT] = 0
	L2_cache_stats_breakdown[L1_WRBK_ACC][HIT] = 0
	L2_cache_stats_breakdown[L1_WRBK_ACC][HIT_RESERVED] = 0
	L2_cache_stats_breakdown[L1_WRBK_ACC][MISS] = 0
	L2_cache_stats_breakdown[L1_WRBK_ACC][RESERVATION_FAIL] = 0
	L2_cache_stats_breakdown[L1_WRBK_ACC][SECTOR_MISS] = 0
	L2_cache_stats_breakdown[L1_WRBK_ACC][MSHR_HIT] = 0
	L2_cache_stats_breakdown[L2_WRBK_ACC][HIT] = 0
	L2_cache_stats_breakdown[L2_WRBK_ACC][HIT_RESERVED] = 0
	L2_cache_stats_breakdown[L2_WRBK_ACC][MISS] = 0
[...]

------------------------------------------------------------------------

Row_Buffer_Locality = 0.821459
Row_Buffer_Locality_read = 0.893629
Row_Buffer_Locality_write = 0.723091
Bank_Level_Parallism = 10.796246
Bank_Level_Parallism_Col = 10.484176
Bank_Level_Parallism_Ready = 5.745542
write_to_read_ratio_blp_rw_average = 0.470922
GrpLevelPara = 1.000000 

BW Util details:
bwutil = 0.545683 
total_CMD = 188252 
util_bw = 102726 
Wasted_Col = 9999 
Wasted_Row = 274 
Idle = 75253 

BW Util Bottlenecks: 
RCDc_limit = 827 
RCDWRc_limit = 1159 
WTRc_limit = 45667 
RTWc_limit = 47382 
CCDLc_limit = 0 
rwq = 0 
CCDLc_limit_alone = 0 
WTRc_limit_alone = 45667 
RTWc_limit_alone = 47382 

Commands details: 
total_CMD = 188252 
n_nop = 133181 
Read = 11064 
Write = 18563 
L2_Alloc = 18568 
L2_WB = 3168 
n_act = 2293 
n_pre = 2277 
n_ref = 0 
n_req = 12843 
total_req = 51363 

Dual Bus Interface Util: 
issued_total_row = 4570 
issued_total_col = 51363 
Row_Bus_Util =  0.024276 
CoL_Bus_Util = 0.272842 
Either_Row_CoL_Bus_Util = 0.292539 
Issued_on_Two_Bus_Simul_Util = 0.004579 
issued_two_Eff = 0.015653 
queue_avg = 35.553997 


dram_util_bins: 0 0 0 0 0 0 0 0 0 0
dram_eff_bins: 0 0 0 0 0 0 0 0 0 0
mrqq: max=64 avg=35.554
Memory Partition 3: 
Cache L2_bank_006:
MSHR contents

Cache L2_bank_007:
MSHR contents

In Dram Latency Queue (total = 0): 
DRAM[3]: 16 bks, busW=4 BL=8 CL=12, tRRD=6 tCCD=2, tRCD=12 tRAS=28 tRP=12 tRC=40
n_cmd=188252 n_nop=133604 n_act=2091 n_pre=2075 n_ref_event=0 n_req=12812 n_rd=10992 n_rd_L2_A=18568 n_write=18566 n_wr_bk=3104 bw_util=0.5443
n_activity=113638 dram_eff=0.9016
bk0: 2004a 114904i bk1: 2004a 113933i bk2: 2156a 108289i bk3: 2156a 106727i bk4: 1952a 106374i bk5: 1952a 105763i bk6: 1644a 116510i bk7: 1644a 114886i bk8: 1856a 114597i bk9: 1856a 113686i bk10: 1888a 117078i bk11: 1892a 116233i bk12: 1744a 118283i bk13: 1748a 117515i bk14: 1532a 122919i bk15: 1532a 122057i 

------------------------------------------------------------------------

Row_Buffer_Locality = 0.836794
Row_Buffer_Locality_read = 0.901488
Row_Buffer_Locality_write = 0.748617
Bank_Level_Parallism = 10.607552
Bank_Level_Parallism_Col = 10.325816
Bank_Level_Parallism_Ready = 5.692121
write_to_read_ratio_blp_rw_average = 0.467192
GrpLevelPara = 1.000000 

BW Util details:
bwutil = 0.544270 
total_CMD = 188252 
util_bw = 102460 
Wasted_Col = 10039 
Wasted_Row = 260 
Idle = 75493 

BW Util Bottlenecks: 
RCDc_limit = 815 
RCDWRc_limit = 1051 
WTRc_limit = 45177 
RTWc_limit = 47356 
CCDLc_limit = 0 
rwq = 0 
CCDLc_limit_alone = 0 
WTRc_limit_alone = 45177 
RTWc_limit_alone = 47356 

Commands details: 
total_CMD = 188252 
n_nop = 133604 
Read = 10992 
Write = 18566 
L2_Alloc = 18568 
L2_WB = 3104 
n_act = 2091 
n_pre = 2075 
n_ref = 0 
n_req = 12812 
total_req = 51230 

Dual Bus Interface Util: 
issued_total_row = 4166 
issued_total_col = 51230 
Row_Bus_Util =  0.022130 
CoL_Bus_Util = 0.272135 
Either_Row_CoL_Bus_Util = 0.290292 
Issued_on_Two_Bus_Simul_Util = 0.003973 
issued_two_Eff = 0.013688 
queue_avg = 35.507935 


dram_util_bins: 0 0 0 0 0 0 0 0 0 0
dram_eff_bins: 0 0 0 0 0 0 0 0 0 0
mrqq: max=64 avg=35.5079
Memory Partition 4: 
Cache L2_bank_008:
MSHR contents

Cache L2_bank_009:
MSHR contents

In Dram Latency Queue (total = 0): 
DRAM[4]: 16 bks, busW=4 BL=8 CL=12, tRRD=6 tCCD=2, tRCD=12 tRAS=28 tRP=12 tRC=40
n_cmd=188252 n_nop=133397 n_act=2205 n_pre=2189 n_ref_event=0 n_req=12823 n_rd=11040 n_rd_L2_A=18536 n_write=18537 n_wr_bk=3152 bw_util=0.5446
n_activity=113460 dram_eff=0.9037
bk0: 2016a 112149i bk1: 2016a 110701i bk2: 2088a 108781i bk3: 2088a 107688i bk4: 1972a 105899i bk5: 1972a 105423i bk6: 1688a 115663i bk7: 1688a 114839i bk8: 1832a 113624i bk9: 1832a 112075i bk10: 1896a 115178i bk11: 1896a 113753i bk12: 1728a 116248i bk13: 1728a 115354i bk14: 1568a 120387i bk15: 1568a 118967i 

------------------------------------------------------------------------

Row_Buffer_Locality = 0.828043
Row_Buffer_Locality_read = 0.894915
Row_Buffer_Locality_write = 0.736968
Bank_Level_Parallism = 10.819911
Bank_Level_Parallism_Col = 10.518456
Bank_Level_Parallism_Ready = 5.750204
write_to_read_ratio_blp_rw_average = 0.471516
GrpLevelPara = 1.000000 

BW Util details:
bwutil = 0.544642 
total_CMD = 188252 
util_bw = 102530 
Wasted_Col = 9876 
Wasted_Row = 241 
Idle = 75605 

BW Util Bottlenecks: 
RCDc_limit = 735 
RCDWRc_limit = 1085 
WTRc_limit = 45228 
RTWc_limit = 47181 
CCDLc_limit = 0 
rwq = 0 
CCDLc_limit_alone = 0 
WTRc_limit_alone = 45228 
RTWc_limit_alone = 47181 

Commands details: 
total_CMD = 188252 
n_nop = 133397 
Read = 11040 
Write = 18537 
L2_Alloc = 18536 
L2_WB = 3152 
n_act = 2205 
n_pre = 2189 
n_ref = 0 
n_req = 12823 
total_req = 51265 

Dual Bus Interface Util: 
issued_total_row = 4394 
issued_total_col = 51265 
Row_Bus_Util =  0.023341 
CoL_Bus_Util = 0.272321 
Either_Row_CoL_Bus_Util = 0.291391 
Issued_on_Two_Bus_Simul_Util = 0.004271 
issued_two_Eff = 0.014657 
queue_avg = 34.886780 


dram_util_bins: 0 0 0 0 0 0 0 0 0 0
dram_eff_bins: 0 0 0 0 0 0 0 0 0 0
mrqq: max=64 avg=34.8868
Memory Partition 5: 
Cache L2_bank_010:
MSHR contents

Cache L2_bank_011:
MSHR contents

In Dram Latency Queue (total = 0): 
DRAM[5]: 16 bks, busW=4 BL=8 CL=12, tRRD=6 tCCD=2, tRCD=12 tRAS=28 tRP=12 tRC=40
n_cmd=188252 n_nop=133239 n_act=2231 n_pre=2215 n_ref_event=0 n_req=12832 n_rd=11208 n_rd_L2_A=18512 n_write=18506 n_wr_bk=3096 bw_util=0.5452
n_activity=114036 dram_eff=0.9001
bk0: 2036a 116184i bk1: 2036a 114637i bk2: 2176a 107290i bk3: 2176a 106875i bk4: 1996a 107257i bk5: 1996a 106596i bk6: 1664a 116322i bk7: 1664a 116855i bk8: 1848a 115706i bk9: 1848a 115071i bk10: 1876a 116239i bk11: 1876a 116211i bk12: 1736a 115786i bk13: 1736a 116626i bk14: 1528a 123929i bk15: 1528a 123128i 

------------------------------------------------------------------------

Row_Buffer_Locality = 0.826138
Row_Buffer_Locality_read = 0.894213
Row_Buffer_Locality_write = 0.732506
Bank_Level_Parallism = 10.519947
Bank_Level_Parallism_Col = 10.227118
Bank_Level_Parallism_Ready = 5.661757
write_to_read_ratio_blp_rw_average = 0.459096
GrpLevelPara = 1.000000 

BW Util details:
bwutil = 0.545248 
total_CMD = 188252 
util_bw = 102644 
Wasted_Col = 10260 
Wasted_Row = 308 
Idle = 75040 

BW Util Bottlenecks: 
RCDc_limit = 958 
RCDWRc_limit = 1153 
WTRc_limit = 46126 
RTWc_limit = 46710 
CCDLc_limit = 0 
rwq = 0 
CCDLc_limit_alone = 0 
WTRc_limit_alone = 46126 
RTWc_limit_alone = 46710 

Commands details: 
total_CMD = 188252 
n_nop = 133239 
Read = 11208 
Write = 18506 
L2_Alloc = 18512 
L2_WB = 3096 
n_act = 2231 
n_pre = 2215 
n_ref = 0 
n_req = 12832 
total_req = 51322 

Dual Bus Interface Util: 
issued_total_row = 4446 
issued_total_col = 51322 
Row_Bus_Util =  0.023617 
CoL_Bus_Util = 0.272624 
Either_Row_CoL_Bus_Util = 0.292231 
Issued_on_Two_Bus_Simul_Util = 0.004011 
issued_two_Eff = 0.013724 
queue_avg = 35.014370 


dram_util_bins: 0 0 0 0 0 0 0 0 0 0
dram_eff_bins: 0 0 0 0 0 0 0 0 0 0
mrqq: max=64 avg=35.0144
Memory Partition 6: 
Cache L2_bank_012:
MSHR contents

Cache L2_bank_013:
MSHR contents

In Dram Latency Queue (total = 0): 
DRAM[6]: 16 bks, busW=4 BL=8 CL=12, tRRD=6 tCCD=2, tRCD=12 tRAS=28 tRP=12 tRC=40
n_cmd=188252 n_nop=132752 n_act=2374 n_pre=2358 n_ref_event=0 n_req=12903 n_rd=11312 n_rd_L2_A=18572 n_write=18567 n_wr_bk=3152 bw_util=0.5482
n_activity=114498 dram_eff=0.9014
bk0: 2052a 113190i bk1: 2056a 111919i bk2: 2116a 108397i bk3: 2116a 107034i bk4: 2004a 107356i bk5: 2004a 106349i bk6: 1696a 117231i bk7: 1696a 116344i bk8: 1840a 115497i bk9: 1840a 114884i bk10: 1904a 115801i bk11: 1904a 114657i bk12: 1744a 114869i bk13: 1744a 114194i bk14: 1584a 122593i bk15: 1584a 120717i 

------------------------------------------------------------------------

Row_Buffer_Locality = 0.816012
Row_Buffer_Locality_read = 0.893722
Row_Buffer_Locality_write = 0.709131
Bank_Level_Parallism = 10.595604
Bank_Level_Parallism_Col = 10.272452
Bank_Level_Parallism_Ready = 5.676358
write_to_read_ratio_blp_rw_average = 0.459194
GrpLevelPara = 1.000000 

BW Util details:
bwutil = 0.548233 
total_CMD = 188252 
util_bw = 103206 
Wasted_Col = 10238 
Wasted_Row = 261 
Idle = 74547 

BW Util Bottlenecks: 
RCDc_limit = 810 
RCDWRc_limit = 1338 
WTRc_limit = 45912 
RTWc_limit = 46417 
CCDLc_limit = 0 
rwq = 0 
CCDLc_limit_alone = 0 
WTRc_limit_alone = 45912 
RTWc_limit_alone = 46417 

Commands details: 
total_CMD = 188252 
n_nop = 132752 
Read = 11312 
Write = 18567 
L2_Alloc = 18572 
L2_WB = 3152 
n_act = 2374 
n_pre = 2358 
n_ref = 0 
n_req = 12903 
total_req = 51603 

Dual Bus Interface Util: 
issued_total_row = 4732 
issued_total_col = 51603 
Row_Bus_Util =  0.025137 
CoL_Bus_Util = 0.274117 
Either_Row_CoL_Bus_Util = 0.294818 
Issued_on_Two_Bus_Simul_Util = 0.004436 
issued_two_Eff = 0.015045 
queue_avg = 34.282436 


dram_util_bins: 0 0 0 0 0 0 0 0 0 0
dram_eff_bins: 0 0 0 0 0 0 0 0 0 0
mrqq: max=64 avg=34.2824
Memory Partition 7: 
Cache L2_bank_014:
MSHR contents

Cache L2_bank_015:
MSHR contents

In Dram Latency Queue (total = 0): 
DRAM[7]: 16 bks, busW=4 BL=8 CL=12, tRRD=6 tCCD=2, tRCD=12 tRAS=28 tRP=12 tRC=40
n_cmd=188252 n_nop=133416 n_act=2218 n_pre=2202 n_ref_event=0 n_req=12790 n_rd=11176 n_rd_L2_A=18456 n_write=18450 n_wr_bk=3072 bw_util=0.5435
n_activity=113979 dram_eff=0.8976
bk0: 2012a 115616i bk1: 2000a 115031i bk2: 2148a 110855i bk3: 2148a 110042i bk4: 1984a 108368i bk5: 1984a 107185i bk6: 1672a 118455i bk7: 1672a 117993i bk8: 1852a 115337i bk9: 1848a 116560i bk10: 1884a 118062i bk11: 1884a 117180i bk12: 1720a 117373i bk13: 1720a 116847i bk14: 1552a 124421i bk15: 1552a 123725i 

------------------------------------------------------------------------

Row_Buffer_Locality = 0.826583
Row_Buffer_Locality_read = 0.895248
Row_Buffer_Locality_write = 0.732070
Bank_Level_Parallism = 10.364885
Bank_Level_Parallism_Col = 10.070300
Bank_Level_Parallism_Ready = 5.607967
write_to_read_ratio_blp_rw_average = 0.461474
GrpLevelPara = 1.000000 

BW Util details:
bwutil = 0.543463 
total_CMD = 188252 
util_bw = 102308 
Wasted_Col = 10552 
Wasted_Row = 272 
Idle = 75120 

BW Util Bottlenecks: 
RCDc_limit = 907 
RCDWRc_limit = 1231 
WTRc_limit = 46010 
RTWc_limit = 46046 
CCDLc_limit = 0 
rwq = 0 
CCDLc_limit_alone = 0 
WTRc_limit_alone = 46010 
RTWc_limit_alone = 46046 

Commands details: 
total_CMD = 188252 
n_nop = 133416 
Read = 11176 
Write = 18450 
L2_Alloc = 18456 
L2_WB = 3072 
n_act = 2218 
n_pre = 2202 
n_ref = 0 
n_req = 12790 
total_req = 51154 

Dual Bus Interface Util: 
issued_total_row = 4420 
issued_total_col = 51154 
Row_Bus_Util =  0.023479 
CoL_Bus_Util = 0.271731 
Either_Row_CoL_Bus_Util = 0.291290 
Issued_on_Two_Bus_Simul_Util = 0.003920 
issued_two_Eff = 0.013458 
queue_avg = 33.916172 


dram_util_bins: 0 0 0 0 0 0 0 0 0 0
dram_eff_bins: 0 0 0 0 0 0 0 0 0 0
mrqq: max=64 avg=33.9162

========= L2 cache stats =========
L2_cache_bank[0]: Access = 6056, Miss = 3698, Miss_rate = 0.611, Pending_hits = 41, Reservation_fails = 126
L2_cache_bank[1]: Access = 6036, Miss = 3700, Miss_rate = 0.613, Pending_hits = 20, Reservation_fails = 101
L2_cache_bank[2]: Access = 6036, Miss = 3684, Miss_rate = 0.610, Pending_hits = 19, Reservation_fails = 80
L2_cache_bank[3]: Access = 6036, Miss = 3681, Miss_rate = 0.610, Pending_hits = 21, Reservation_fails = 104
L2_cache_bank[4]: Access = 6036, Miss = 3704, Miss_rate = 0.614, Pending_hits = 20, Reservation_fails = 80
L2_cache_bank[5]: Access = 6036, Miss = 3704, Miss_rate = 0.614, Pending_hits = 19, Reservation_fails = 79
L2_cache_bank[6]: Access = 6016, Miss = 3694, Miss_rate = 0.614, Pending_hits = 2, Reservation_fails = 76
L2_cache_bank[7]: Access = 6016, Miss = 3696, Miss_rate = 0.614, Pending_hits = 2, Reservation_fails = 69
L2_cache_bank[8]: Access = 6016, Miss = 3697, Miss_rate = 0.615, Pending_hits = 2, Reservation_fails = 106
L2_cache_bank[9]: Access = 6016, Miss = 3697, Miss_rate = 0.615, Pending_hits = 5, Reservation_fails = 98
L2_cache_bank[10]: Access = 6036, Miss = 3715, Miss_rate = 0.615, Pending_hits = 19, Reservation_fails = 87
L2_cache_bank[11]: Access = 6036, Miss = 3715, Miss_rate = 0.615, Pending_hits = 19, Reservation_fails = 79
L2_cache_bank[12]: Access = 6036, Miss = 3735, Miss_rate = 0.619, Pending_hits = 19, Reservation_fails = 65
L2_cache_bank[13]: Access = 6036, Miss = 3736, Miss_rate = 0.619, Pending_hits = 20, Reservation_fails = 70
L2_cache_bank[14]: Access = 6036, Miss = 3706, Miss_rate = 0.614, Pending_hits = 19, Reservation_fails = 77
L2_cache_bank[15]: Access = 6016, Miss = 3702, Miss_rate = 0.615, Pending_hits = 0, Reservation_fails = 89
L2_total_cache_accesses = 96496
L2_total_cache_misses = 59264
L2_total_cache_miss_rate = 0.6142
L2_total_cache_pending_hits = 247
L2_total_cache_reservation_fails = 1386
L2_total_cache_breakdown:
	L2_cache_stats_breakdown[GLOBAL_ACC_R][HIT] = 29005
	L2_cache_stats_breakdown[GLOBAL_ACC_R][HIT_RESERVED] = 0
	L2_cache_stats_breakdown[GLOBAL_ACC_R][MISS] = 22195
	L2_cache_stats_breakdown[GLOBAL_ACC_R][RESERVATION_FAIL] = 347
	L2_cache_stats_breakdown[GLOBAL_ACC_R][SECTOR_MISS] = 0
	L2_cache_stats_breakdown[GLOBAL_ACC_R][MSHR_HIT] = 0
	L2_cache_stats_breakdown[LOCAL_ACC_R][HIT] = 0
	L2_cache_stats_breakdown[LOCAL_ACC_R][HIT_RESERVED] = 0
	L2_cache_stats_breakdown[LOCAL_ACC_R][MISS] = 0
	L2_cache_stats_breakdown[LOCAL_ACC_R][RESERVATION_FAIL] = 0
	L2_cache_stats_breakdown[LOCAL_ACC_R][SECTOR_MISS] = 0
	L2_cache_stats_breakdown[LOCAL_ACC_R][MSHR_HIT] = 0
	L2_cache_stats_breakdown[CONST_ACC_R][HIT] = 0
	L2_cache_stats_breakdown[CONST_ACC_R][HIT_RESERVED] = 19
	L2_cache_stats_breakdown[CONST_ACC_R][MISS] = 1
	L2_cache_stats_breakdown[CONST_ACC_R][RESERVATION_FAIL] = 0
	L2_cache_stats_breakdown[CONST_ACC_R][SECTOR_MISS] = 0
	L2_cache_stats_breakdown[CONST_ACC_R][MSHR_HIT] = 19
	L2_cache_stats_breakdown[TEXTURE_ACC_R][HIT] = 0
	L2_cache_stats_breakdown[TEXTURE_ACC_R][HIT_RESERVED] = 0
	L2_cache_stats_breakdown[TEXTURE_ACC_R][MISS] = 0
	L2_cache_stats_breakdown[TEXTURE_ACC_R][RESERVATION_FAIL] = 0
	L2_cache_stats_breakdown[TEXTURE_ACC_R][SECTOR_MISS] = 0
	L2_cache_stats_breakdown[TEXTURE_ACC_R][MSHR_HIT] = 0
	L2_cache_stats_breakdown[GLOBAL_ACC_W][HIT] = 7980
	L2_cache_stats_breakdown[GLOBAL_ACC_W][HIT_RESERVED] = 19
	L2_cache_stats_breakdown[GLOBAL_ACC_W][MISS] = 37057
	L2_cache_stats_breakdown[GLOBAL_ACC_W][RESERVATION_FAIL] = 1039
	L2_cache_stats_breakdown[GLOBAL_ACC_W][SECTOR_MISS] = 0
	L2_cache_stats_breakdown[GLOBAL_ACC_W][MSHR_HIT] = 0
	L2_cache_stats_breakdown[LOCAL_ACC_W][HIT] = 0
	L2_cache_stats_breakdown[LOCAL_ACC_W][HIT_RESERVED] = 0
	L2_cache_stats_breakdown[LOCAL_ACC_W][MISS] = 0
	L2_cache_stats_breakdown[LOCAL_ACC_W][RESERVATION_FAIL] = 0
	L2_cache_stats_breakdown[LOCAL_ACC_W][SECTOR_MISS] = 0
	L2_cache_stats_breakdown[LOCAL_ACC_W][MSHR_HIT] = 0
	L2_cache_stats_breakdown[L1_WRBK_ACC][HIT] = 0
	L2_cache_stats_breakdown[L1_WRBK_ACC][HIT_RESERVED] = 0
	L2_cache_stats_breakdown[L1_WRBK_ACC][MISS] = 0
	L2_cache_stats_breakdown[L1_WRBK_ACC][RESERVATION_FAIL] = 0
	L2_cache_stats_breakdown[L1_WRBK_ACC][SECTOR_MISS] = 0
	L2_cache_stats_breakdown[L1_WRBK_ACC][MSHR_HIT] = 0
	L2_cache_stats_breakdown[L2_WRBK_ACC][HIT] = 0
	L2_cache_stats_breakdown[L2_WRBK_ACC][HIT_RESERVED] = 0
	L2_cache_stats_breakdown[L2_WRBK_ACC][MISS] = 0
	L2_cache_stats_breakdown[L2_WRBK_ACC][RESERVATION_FAIL] = 0
	L2_cache_stats_breakdown[L2_WRBK_ACC][SECTOR_MISS] = 0
	L2_cache_stats_breakdown[L2_WRBK_ACC][MSHR_HIT] = 0
	L2_cache_stats_breakdown[INST_ACC_R][HIT] = 0
	L2_cache_stats_breakdown[INST_ACC_R][HIT_RESERVED] = 209
	L2_cache_stats_breakdown[INST_ACC_R][MISS] = 11
	L2_cache_stats_breakdown[INST_ACC_R][RESERVATION_FAIL] = 0
	L2_cache_stats_breakdown[INST_ACC_R][SECTOR_MISS] = 0
	L2_cache_stats_breakdown[INST_ACC_R][MSHR_HIT] = 209
	L2_cache_stats_breakdown[L1_WR_ALLOC_R][HIT] = 0
	L2_cache_stats_breakdown[L1_WR_ALLOC_R][HIT_RESERVED] = 0
	L2_cache_stats_breakdown[L1_WR_ALLOC_R][MISS] = 0
	L2_cache_stats_breakdown[L1_WR_ALLOC_R][RESERVATION_FAIL] = 0
	L2_cache_stats_breakdown[L1_WR_ALLOC_R][SECTOR_MISS] = 0
	L2_cache_stats_breakdown[L1_WR_ALLOC_R][MSHR_HIT] = 0
	L2_cache_stats_breakdown[L2_WR_ALLOC_R][HIT] = 0
	L2_cache_stats_breakdown[L2_WR_ALLOC_R][HIT_RESERVED] = 0
	L2_cache_stats_breakdown[L2_WR_ALLOC_R][MISS] = 0
	L2_cache_stats_breakdown[L2_WR_ALLOC_R][RESERVATION_FAIL] = 0
	L2_cache_stats_breakdown[L2_WR_ALLOC_R][SECTOR_MISS] = 0
	L2_cache_stats_breakdown[L2_WR_ALLOC_R][MSHR_HIT] = 19
	L2_cache_stats_breakdown[GLOBAL_ACC_R][TOTAL_ACCESS] = 51200
	L2_cache_stats_breakdown[CONST_ACC_R][TOTAL_ACCESS] = 20
	L2_cache_stats_breakdown[GLOBAL_ACC_W][TOTAL_ACCESS] = 45056
	L2_cache_stats_breakdown[INST_ACC_R][TOTAL_ACCESS] = 220
L2_total_cache_reservation_fail_breakdown:
	L2_cache_stats_fail_breakdown[GLOBAL_ACC_R][MISS_QUEUE_FULL] = 347
	L2_cache_stats_fail_breakdown[GLOBAL_ACC_W][MISS_QUEUE_FULL] = 1039
L2_cache_data_port_util = 0.089
L2_cache_fill_port_util = 0.135

icnt_total_pkts_mem_to_simt=302216
icnt_total_pkts_simt_to_mem=275952
LD_mem_lat_dist  0 0 0 0 0 0 0 0 0 0 0 0 0 0 0 0 0 0 0 0 0 0 0 0 0 0 0
ST_mem_lat_dist  0 0 0 0 0 0 0 0 0 0 0 0 0 0 0 0 0 0 0 0 0 0 0 0 0 0 0
----------------------------Interconnect-DETAILS--------------------------------
Class 0:
Packet latency average = 85.328797
	minimum = 6.000000
	maximum = 1344.000000
Network latency average = 52.515287
	minimum = 6.000000
	maximum = 1089.000000
Slowest packet = 179060
Flit latency average = 29.653975
	minimum = 6.000000
	maximum = 1089.000000
Slowest flit = 534110
Fragmentation average = 0.000191
	minimum = 0.000000
	maximum = 1.000000
Injected packet rate average = 0.007778
	minimum = 0.000000 (at node 36)
	maximum = 0.012393 (at node 20)
Accepted packet rate average = 0.007778
	minimum = 0.000000 (at node 36)
	maximum = 0.012393 (at node 20)
Injected flit rate average = 0.023105
	minimum = 0.000000 (at node 36)
	maximum = 0.061018 (at node 20)
Accepted flit rate average= 0.023105
	minimum = 0.000000 (at node 36)
	maximum = 0.047853 (at node 0)
Injected packet length average = 2.970723
Accepted packet length average = 2.970723
Total in-flight flits = 0 (0 measured)
====== Overall Traffic Statistics ======
====== Traffic class 0 ======
Packet latency average = 88.659970 (6 samples)
	minimum = 6.000000 (6 samples)
	maximum = 1695.500000 (6 samples)
Network latency average = 56.981428 (6 samples)
	minimum = 6.000000 (6 samples)
	maximum = 1434.833333 (6 samples)
Flit latency average = 41.501463 (6 samples)
	minimum = 6.000000 (6 samples)
	maximum = 1433.500000 (6 samples)
Fragmentation average = 1.248933 (6 samples)
	minimum = 0.000000 (6 samples)
	maximum = 1032.333333 (6 samples)
Injected packet rate average = 0.024443 (6 samples)
	minimum = 0.000000 (6 samples)
	maximum = 0.038758 (6 samples)
Accepted packet rate average = 0.024443 (6 samples)
	minimum = 0.000000 (6 samples)
	maximum = 0.038758 (6 samples)
Injected flit rate average = 0.073288 (6 samples)
	minimum = 0.000000 (6 samples)
	maximum = 0.138472 (6 samples)
Accepted flit rate average = 0.073288 (6 samples)
	minimum = 0.000000 (6 samples)
	maximum = 0.132776 (6 samples)
Injected packet size average = 2.998334 (6 samples)
Accepted packet size average = 2.998334 (6 samples)
Hops average = 1.000000 (6 samples)
----------------------------END-of-Interconnect-DETAILS-------------------------


gpgpu_simulation_time = 0 days, 0 hrs, 1 min, 53 sec (113 sec)
gpgpu_simulation_rate = 386140 (inst/sec)
gpgpu_simulation_rate = 973 (cycle/sec)
gpgpu_silicon_slowdown = 1651593x
Function    MBytes/sec  Min (sec)   Max         Average     
Copy        0.264       6.20862     6.20862     6.20862     
Mul         0.218       7.50932     7.50932     7.50932     
Add         0.232       10.61161    10.61161    10.61161    
Triad       0.190       12.91440    12.91440    12.91440    
Dot         0.028       58.25721    58.25721    58.25721    
GPGPU-Sim: *** exit detected ***
