GPGPU-Sim version 4.2.0 (build gpgpu-sim_git-commit-13c67115070dc2f0876254a790d0238073ca364a-modified_590.0) configured with AccelWattch.

----------------------------------------------------------------------------
INFO - If you only care about PTX execution, ignore this message. GPGPU-Sim supports PTX execution in modern CUDA.
If you want to run PTXPLUS (sm_1x SASS) with a modern card configuration - set the envronment variable
$PTXAS_CUDA_INSTALL_PATH to point a CUDA version compabible with your card configurations (i.e. 8+ for PASCAL, 9+ for VOLTA etc..)
For example: "export $PTXAS_CUDA_INSTALL_PATH=/usr/local/cuda-9.1"

The following text describes why:
If you are using PTXPLUS, only sm_1x is supported and it requires that the app and simulator binaries are compiled in CUDA 4.2 or less.
The simulator requires it since CUDA headers desribe struct sizes in the exec which change from gen to gen.
The apps require 4.2 because new versions of CUDA tools have dropped parsing support for generating sm_1x
When running using modern config (i.e. volta) and PTXPLUS with CUDA 4.2, the $PTXAS_CUDA_INSTALL_PATH env variable is required to get proper register usage
(and hence occupancy) using a version of CUDA that knows the register usage on the real card.

----------------------------------------------------------------------------
setup_environment succeeded
Accel-Sim [build accelsim-commit-e02c99dbadefc0b9dc95317100be2a446eec142c_modified_0.0]

        *** GPGPU-Sim Simulator Version 4.2.0  [build gpgpu-sim_git-commit-13c67115070dc2f0876254a790d0238073ca364a_modified_0.0] ***


GPGPU-Sim: Configuration options:

-save_embedded_ptx                      0 # saves ptx files embedded in binary as <n>.ptx
-keep                                   0 # keep intermediate files created by GPGPU-Sim when interfacing with external programs
-gpgpu_ptx_save_converted_ptxplus                    0 # Saved converted ptxplus to a file
-gpgpu_occupancy_sm_number                   86 # The SM number to pass to ptxas when getting register usage for computing GPU occupancy. This parameter is required in the config.
-ptx_opcode_latency_int           4,4,4,4,21 # Opcode latencies for integers <ADD,MAX,MUL,MAD,DIV,SHFL>Default 1,1,19,25,145,32
-ptx_opcode_latency_fp           4,4,4,4,39 # Opcode latencies for single precision floating points <ADD,MAX,MUL,MAD,DIV>Default 1,1,1,1,30
-ptx_opcode_latency_dp      64,64,64,64,330 # Opcode latencies for double precision floating points <ADD,MAX,MUL,MAD,DIV>Default 8,8,8,8,335
-ptx_opcode_latency_sfu                   21 # Opcode latencies for SFU instructionsDefault 8
-ptx_opcode_latency_tesnor                   64 # Opcode latencies for Tensor instructionsDefault 64
-ptx_opcode_initiation_int            2,2,2,2,2 # Opcode initiation intervals for integers <ADD,MAX,MUL,MAD,DIV,SHFL>Default 1,1,4,4,32,4
-ptx_opcode_initiation_fp            1,1,1,1,2 # Opcode initiation intervals for single precision floating points <ADD,MAX,MUL,MAD,DIV>Default 1,1,1,1,5
-ptx_opcode_initiation_dp      64,64,64,64,130 # Opcode initiation intervals for double precision floating points <ADD,MAX,MUL,MAD,DIV>Default 8,8,8,8,130
-ptx_opcode_initiation_sfu                    8 # Opcode initiation intervals for sfu instructionsDefault 8
-ptx_opcode_initiation_tensor                   64 # Opcode initiation intervals for tensor instructionsDefault 64
-cdp_latency         7200,8000,100,12000,1600 # CDP API latency <cudaStreamCreateWithFlags, cudaGetParameterBufferV2_init_perWarp, cudaGetParameterBufferV2_perKernel, cudaLaunchDeviceV2_init_perWarp, cudaLaunchDevicV2_perKernel>Default 7200,8000,100,12000,1600
-network_mode                           2 # Interconnection network mode
-inter_config_file                   mesh # Interconnection network config file
-icnt_in_buffer_limit                  512 # in_buffer_limit
-icnt_out_buffer_limit                  512 # out_buffer_limit
-icnt_subnets                           2 # subnets
-icnt_arbiter_algo                      1 # arbiter_algo
-icnt_verbose                           0 # inct_verbose
-icnt_grant_cycles                      1 # grant_cycles
-gpgpu_ptx_use_cuobjdump                    1 # Use cuobjdump to extract ptx and sass from binaries
-gpgpu_experimental_lib_support                    0 # Try to extract code from cuda libraries [Broken because of unknown cudaGetExportTable]
-checkpoint_option                      0 #  checkpointing flag (0 = no checkpoint)
-checkpoint_kernel                      1 #  checkpointing during execution of which kernel (1- 1st kernel)
-checkpoint_CTA                         0 #  checkpointing after # of CTA (< less than total CTA)
-resume_option                          0 #  resume flag (0 = no resume)
-resume_kernel                          0 #  Resume from which kernel (1= 1st kernel)
-resume_CTA                             0 #  resume from which CTA 
-checkpoint_CTA_t                       0 #  resume from which CTA 
-checkpoint_insn_Y                      0 #  resume from which CTA 
-gpgpu_ptx_convert_to_ptxplus                    0 # Convert SASS (native ISA) to ptxplus and run ptxplus
-gpgpu_ptx_force_max_capability                   86 # Force maximum compute capability
-gpgpu_ptx_inst_debug_to_file                    0 # Dump executed instructions' debug information to file
-gpgpu_ptx_inst_debug_file       inst_debug.txt # Executed instructions' debug output file
-gpgpu_ptx_inst_debug_thread_uid                    1 # Thread UID for executed instructions' debug output
-gpgpu_simd_model                       1 # 1 = post-dominator
-gpgpu_shader_core_pipeline              1536:32 # shader core pipeline config, i.e., {<nthread>:<warpsize>}
-gpgpu_tex_cache:l1  N:4:128:256,L:R:m:N:L,T:512:8,128:2 # per-shader L1 texture cache  (READ-ONLY) config  {<nsets>:<bsize>:<assoc>,<rep>:<wr>:<alloc>:<wr_alloc>,<mshr>:<N>:<merge>,<mq>:<rf>}
-gpgpu_const_cache:l1 N:128:64:8,L:R:f:N:L,S:2:64,4 # per-shader L1 constant memory cache  (READ-ONLY) config  {<nsets>:<bsize>:<assoc>,<rep>:<wr>:<alloc>:<wr_alloc>,<mshr>:<N>:<merge>,<mq>} 
-gpgpu_cache:il1     N:64:128:16,L:R:f:N:L,S:2:48,4 # shader L1 instruction cache config  {<nsets>:<bsize>:<assoc>,<rep>:<wr>:<alloc>:<wr_alloc>,<mshr>:<N>:<merge>,<mq>} 
-gpgpu_cache:dl1     S:4:128:256,L:T:m:L:L,A:384:48,16:0,32 # per-shader L1 data cache config  {<nsets>:<bsize>:<assoc>,<rep>:<wr>:<alloc>:<wr_alloc>,<mshr>:<N>:<merge>,<mq> | none}
-gpgpu_l1_cache_write_ratio                   25 # L1D write ratio
-gpgpu_l1_banks                         4 # The number of L1 cache banks
-gpgpu_l1_banks_byte_interleaving                   32 # l1 banks byte interleaving granularity
-gpgpu_l1_banks_hashing_function                    0 # l1 banks hashing function
-gpgpu_l1_latency                      39 # L1 Hit Latency
-gpgpu_smem_latency                    29 # smem Latency
-gpgpu_cache:dl1PrefL1                 none # per-shader L1 data cache config  {<nsets>:<bsize>:<assoc>,<rep>:<wr>:<alloc>:<wr_alloc>,<mshr>:<N>:<merge>,<mq> | none}
-gpgpu_cache:dl1PrefShared                 none # per-shader L1 data cache config  {<nsets>:<bsize>:<assoc>,<rep>:<wr>:<alloc>:<wr_alloc>,<mshr>:<N>:<merge>,<mq> | none}
-gpgpu_gmem_skip_L1D                    0 # global memory access skip L1D cache (implements -Xptxas -dlcm=cg, default=no skip)
-gpgpu_perfect_mem                      0 # enable perfect memory mode (no cache miss)
-n_regfile_gating_group                    4 # group of lanes that should be read/written together)
-gpgpu_clock_gated_reg_file                    0 # enable clock gated reg file for power calculations
-gpgpu_clock_gated_lanes                    0 # enable clock gated lanes for power calculations
-gpgpu_shader_registers                65536 # Number of registers per shader core. Limits number of concurrent CTAs. (default 8192)
-gpgpu_registers_per_block                65536 # Maximum number of registers per CTA. (default 8192)
-gpgpu_ignore_resources_limitation                    0 # gpgpu_ignore_resources_limitation (default 0)
-gpgpu_shader_cta                      32 # Maximum number of concurrent CTAs in shader (default 32)
-gpgpu_num_cta_barriers                   16 # Maximum number of named barriers per CTA (default 16)
-gpgpu_n_clusters                      48 # number of processing clusters
-gpgpu_n_cores_per_cluster                    1 # number of simd cores per cluster
-gpgpu_n_cluster_ejection_buffer_size                   32 # number of packets in ejection buffer
-gpgpu_n_ldst_response_buffer_size                    2 # number of response packets in ld/st unit ejection buffer
-gpgpu_shmem_per_block                49152 # Size of shared memory per thread block or CTA (default 48kB)
-gpgpu_shmem_size                  102400 # Size of shared memory per shader core (default 16kB)
-gpgpu_shmem_option      0,8,16,32,64,100 # Option list of shared memory sizes
-gpgpu_unified_l1d_size                  128 # Size of unified data cache(L1D + shared memory) in KB
-gpgpu_adaptive_cache_config                    1 # adaptive_cache_config
-gpgpu_shmem_sizeDefault               102400 # Size of shared memory per shader core (default 16kB)
-gpgpu_shmem_size_PrefL1                16384 # Size of shared memory per shader core (default 16kB)
-gpgpu_shmem_size_PrefShared                16384 # Size of shared memory per shader core (default 16kB)
-gpgpu_shmem_num_banks                   32 # Number of banks in the shared memory in each shader core (default 16)
-gpgpu_shmem_limited_broadcast                    0 # Limit shared memory to do one broadcast per cycle (default on)
-gpgpu_shmem_warp_parts                    1 # Number of portions a warp is divided into for shared memory bank conflict check 
-gpgpu_mem_unit_ports                    1 # The number of memory transactions allowed per core cycle
-gpgpu_shmem_warp_parts                    1 # Number of portions a warp is divided into for shared memory bank conflict check 
-gpgpu_warpdistro_shader                   -1 # Specify which shader core to collect the warp size distribution from
-gpgpu_warp_issue_shader                    0 # Specify which shader core to collect the warp issue distribution from
-gpgpu_local_mem_map                    1 # Mapping from local memory space address to simulated GPU physical address space (default = enabled)
-gpgpu_num_reg_banks                    8 # Number of register banks (default = 8)
-gpgpu_reg_bank_use_warp_id                    0 # Use warp ID in mapping registers to banks (default = off)
-gpgpu_sub_core_model                    1 # Sub Core Volta/Pascal model (default = off)
-gpgpu_enable_specialized_operand_collector                    0 # enable_specialized_operand_collector
-gpgpu_operand_collector_num_units_sp                    4 # number of collector units (default = 4)
-gpgpu_operand_collector_num_units_dp                    0 # number of collector units (default = 0)
-gpgpu_operand_collector_num_units_sfu                    4 # number of collector units (default = 4)
-gpgpu_operand_collector_num_units_int                    0 # number of collector units (default = 0)
-gpgpu_operand_collector_num_units_tensor_core                    4 # number of collector units (default = 4)
-gpgpu_operand_collector_num_units_mem                    2 # number of collector units (default = 2)
-gpgpu_operand_collector_num_units_gen                    8 # number of collector units (default = 0)
-gpgpu_operand_collector_num_in_ports_sp                    1 # number of collector unit in ports (default = 1)
-gpgpu_operand_collector_num_in_ports_dp                    0 # number of collector unit in ports (default = 0)
-gpgpu_operand_collector_num_in_ports_sfu                    1 # number of collector unit in ports (default = 1)
-gpgpu_operand_collector_num_in_ports_int                    0 # number of collector unit in ports (default = 0)
-gpgpu_operand_collector_num_in_ports_tensor_core                    1 # number of collector unit in ports (default = 1)
-gpgpu_operand_collector_num_in_ports_mem                    1 # number of collector unit in ports (default = 1)
-gpgpu_operand_collector_num_in_ports_gen                    8 # number of collector unit in ports (default = 0)
-gpgpu_operand_collector_num_out_ports_sp                    1 # number of collector unit in ports (default = 1)
-gpgpu_operand_collector_num_out_ports_dp                    0 # number of collector unit in ports (default = 0)
-gpgpu_operand_collector_num_out_ports_sfu                    1 # number of collector unit in ports (default = 1)
-gpgpu_operand_collector_num_out_ports_int                    0 # number of collector unit in ports (default = 0)
-gpgpu_operand_collector_num_out_ports_tensor_core                    1 # number of collector unit in ports (default = 1)
-gpgpu_operand_collector_num_out_ports_mem                    1 # number of collector unit in ports (default = 1)
-gpgpu_operand_collector_num_out_ports_gen                    8 # number of collector unit in ports (default = 0)
-gpgpu_coalesce_arch                   86 # Coalescing arch (GT200 = 13, Fermi = 20)
-gpgpu_num_sched_per_core                    4 # Number of warp schedulers per core
-gpgpu_max_insn_issue_per_warp                    1 # Max number of instructions that can be issued per warp in one cycle by scheduler (either 1 or 2)
-gpgpu_dual_issue_diff_exec_units                    1 # should dual issue use two different execution unit resources (Default = 1)
-gpgpu_simt_core_sim_order                    1 # Select the simulation order of cores in a cluster (0=Fix, 1=Round-Robin)
-gpgpu_pipeline_widths 4,4,4,4,4,4,4,4,4,4,8,4,4 # Pipeline widths ID_OC_SP,ID_OC_DP,ID_OC_INT,ID_OC_SFU,ID_OC_MEM,OC_EX_SP,OC_EX_DP,OC_EX_INT,OC_EX_SFU,OC_EX_MEM,EX_WB,ID_OC_TENSOR_CORE,OC_EX_TENSOR_CORE
-gpgpu_tensor_core_avail                    1 # Tensor Core Available (default=0)
-gpgpu_num_sp_units                     4 # Number of SP units (default=1)
-gpgpu_num_dp_units                     4 # Number of DP units (default=0)
-gpgpu_num_int_units                    4 # Number of INT units (default=0)
-gpgpu_num_sfu_units                    4 # Number of SF units (default=1)
-gpgpu_num_tensor_core_units                    4 # Number of tensor_core units (default=1)
-gpgpu_num_mem_units                    1 # Number if ldst units (default=1) WARNING: not hooked up to anything
-gpgpu_scheduler                      lrr # Scheduler configuration: < lrr | gto | two_level_active > If two_level_active:<num_active_warps>:<inner_prioritization>:<outer_prioritization>For complete list of prioritization values see shader.h enum scheduler_prioritization_typeDefault: gto
-gpgpu_concurrent_kernel_sm                    0 # Support concurrent kernels on a SM (default = disabled)
-gpgpu_perfect_inst_const_cache                    1 # perfect inst and const cache mode, so all inst and const hits in the cache(default = disabled)
-gpgpu_inst_fetch_throughput                    4 # the number of fetched intruction per warp each cycle
-gpgpu_reg_file_port_throughput                    2 # the number ports of the register file
-specialized_unit_1         1,4,4,4,4,BRA # specialized unit config {<enabled>,<num_units>:<latency>:<initiation>,<ID_OC_SPEC>:<OC_EX_SPEC>,<NAME>}
-specialized_unit_2       1,4,200,4,4,TEX # specialized unit config {<enabled>,<num_units>:<latency>:<initiation>,<ID_OC_SPEC>:<OC_EX_SPEC>,<NAME>}
-specialized_unit_3     1,4,32,4,4,TENSOR # specialized unit config {<enabled>,<num_units>:<latency>:<initiation>,<ID_OC_SPEC>:<OC_EX_SPEC>,<NAME>}
-specialized_unit_4         1,4,4,4,4,UDP # specialized unit config {<enabled>,<num_units>:<latency>:<initiation>,<ID_OC_SPEC>:<OC_EX_SPEC>,<NAME>}
-specialized_unit_5         0,4,4,4,4,BRA # specialized unit config {<enabled>,<num_units>:<latency>:<initiation>,<ID_OC_SPEC>:<OC_EX_SPEC>,<NAME>}
-specialized_unit_6         0,4,4,4,4,BRA # specialized unit config {<enabled>,<num_units>:<latency>:<initiation>,<ID_OC_SPEC>:<OC_EX_SPEC>,<NAME>}
-specialized_unit_7         0,4,4,4,4,BRA # specialized unit config {<enabled>,<num_units>:<latency>:<initiation>,<ID_OC_SPEC>:<OC_EX_SPEC>,<NAME>}
-specialized_unit_8         0,4,4,4,4,BRA # specialized unit config {<enabled>,<num_units>:<latency>:<initiation>,<ID_OC_SPEC>:<OC_EX_SPEC>,<NAME>}
-gpgpu_perf_sim_memcpy                    1 # Fill the L2 cache on memcpy
-gpgpu_simple_dram_model                    0 # simple_dram_model with fixed latency and BW
-gpgpu_dram_scheduler                    1 # 0 = fifo, 1 = FR-FCFS (defaul)
-gpgpu_dram_partition_queues          64:64:64:64 # i2$:$2d:d2$:$2i
-l2_ideal                               0 # Use a ideal L2 cache that always hit
-gpgpu_cache:dl2     S:64:128:16,L:B:m:L:P,A:192:4,32:0,32 # unified banked L2 data cache config  {<nsets>:<bsize>:<assoc>,<rep>:<wr>:<alloc>:<wr_alloc>,<mshr>:<N>:<merge>,<mq>}
-gpgpu_cache:dl2_texture_only                    0 # L2 cache used for texture only
-gpgpu_n_mem                           16 # number of memory modules (e.g. memory controllers) in gpu
-gpgpu_n_sub_partition_per_mchannel                    2 # number of memory subpartition in each memory module
-gpgpu_n_mem_per_ctrlr                    1 # number of memory chips per memory controller
-gpgpu_memlatency_stat                   14 # track and display latency statistics 0x2 enables MC, 0x4 enables queue logs
-gpgpu_frfcfs_dram_sched_queue_size                   64 # 0 = unlimited (default); # entries per chip
-gpgpu_dram_return_queue_size                  192 # 0 = unlimited (default); # entries per chip
-gpgpu_dram_buswidth                    2 # default = 4 bytes (8 bytes per cycle at DDR)
-gpgpu_dram_burst_length                   16 # Burst length of each DRAM request (default = 4 data bus cycle)
-dram_data_command_freq_ratio                    4 # Frequency ratio between DRAM data bus and command bus (default = 2 times, i.e. DDR)
-gpgpu_dram_timing_opt nbk=16:CCD=4:RRD=12:RCD=24:RAS=55:RP=24:RC=78:CL=24:WL=8:CDLR=10:WR=24:nbkgrp=4:CCDL=6:RTPL=4 # DRAM timing parameters = {nbk:tCCD:tRRD:tRCD:tRAS:tRP:tRC:CL:WL:tCDLR:tWR:nbkgrp:tCCDL:tRTPL}
-gpgpu_l2_rop_latency                  187 # ROP queue latency (default 85)
-dram_latency                         254 # DRAM latency (default 30)
-dram_dual_bus_interface                    0 # dual_bus_interface (default = 0) 
-dram_bnk_indexing_policy                    0 # dram_bnk_indexing_policy (0 = normal indexing, 1 = Xoring with the higher bits) (Default = 0)
-dram_bnkgrp_indexing_policy                    1 # dram_bnkgrp_indexing_policy (0 = take higher bits, 1 = take lower bits) (Default = 0)
-dram_seperate_write_queue_enable                    0 # Seperate_Write_Queue_Enable
-dram_write_queue_size             32:28:16 # Write_Queue_Size
-dram_elimnate_rw_turnaround                    0 # elimnate_rw_turnaround i.e set tWTR and tRTW = 0
-icnt_flit_size                        40 # icnt_flit_size
-gpgpu_mem_addr_mapping dramid@8;00000000.00000000.00000000.00000000.0000RRRR.RRRRRRRR.RBBBCCCC.BCCSSSSS # mapping memory address to dram model {dramid@<start bit>;<memory address map>}
-gpgpu_mem_addr_test                    0 # run sweep test to check address mapping for aliased address
-gpgpu_mem_address_mask                    1 # 0 = old addressing mask, 1 = new addressing mask, 2 = new add. mask + flipped bank sel and chip sel bits
-gpgpu_memory_partition_indexing                    2 # 0 = no indexing, 1 = bitwise xoring, 2 = IPoly, 3 = custom indexing
-accelwattch_xml_file accelwattch_sass_sim.xml # AccelWattch XML file
-power_simulation_enabled                    0 # Turn on power simulator (1=On, 0=Off)
-power_per_cycle_dump                    0 # Dump detailed power output each cycle
-hw_perf_file_name            hw_perf.csv # Hardware Performance Statistics file
-hw_perf_bench_name                       # Kernel Name in Hardware Performance Statistics file
-power_simulation_mode                    0 # Switch performance counter input for power simulation (0=Sim, 1=HW, 2=HW-Sim Hybrid)
-dvfs_enabled                           0 # Turn on DVFS for power model
-aggregate_power_stats                    0 # Accumulate power across all kernels
-accelwattch_hybrid_perfsim_L1_RH                    0 # Get L1 Read Hits for Accelwattch-Hybrid from Accel-Sim
-accelwattch_hybrid_perfsim_L1_RM                    0 # Get L1 Read Misses for Accelwattch-Hybrid from Accel-Sim
-accelwattch_hybrid_perfsim_L1_WH                    0 # Get L1 Write Hits for Accelwattch-Hybrid from Accel-Sim
-accelwattch_hybrid_perfsim_L1_WM                    0 # Get L1 Write Misses for Accelwattch-Hybrid from Accel-Sim
-accelwattch_hybrid_perfsim_L2_RH                    0 # Get L2 Read Hits for Accelwattch-Hybrid from Accel-Sim
-accelwattch_hybrid_perfsim_L2_RM                    0 # Get L2 Read Misses for Accelwattch-Hybrid from Accel-Sim
-accelwattch_hybrid_perfsim_L2_WH                    0 # Get L2 Write Hits for Accelwattch-Hybrid from Accel-Sim
-accelwattch_hybrid_perfsim_L2_WM                    0 # Get L2 Write Misses for Accelwattch-Hybrid from Accel-Sim
-accelwattch_hybrid_perfsim_CC_ACC                    0 # Get Constant Cache Acesses for Accelwattch-Hybrid from Accel-Sim
-accelwattch_hybrid_perfsim_SHARED_ACC                    0 # Get Shared Memory Acesses for Accelwattch-Hybrid from Accel-Sim
-accelwattch_hybrid_perfsim_DRAM_RD                    0 # Get DRAM Reads for Accelwattch-Hybrid from Accel-Sim
-accelwattch_hybrid_perfsim_DRAM_WR                    0 # Get DRAM Writes for Accelwattch-Hybrid from Accel-Sim
-accelwattch_hybrid_perfsim_NOC                    0 # Get Interconnect Acesses for Accelwattch-Hybrid from Accel-Sim
-accelwattch_hybrid_perfsim_PIPE_DUTY                    0 # Get Pipeline Duty Cycle Acesses for Accelwattch-Hybrid from Accel-Sim
-accelwattch_hybrid_perfsim_NUM_SM_IDLE                    0 # Get Number of Idle SMs for Accelwattch-Hybrid from Accel-Sim
-accelwattch_hybrid_perfsim_CYCLES                    0 # Get Executed Cycles for Accelwattch-Hybrid from Accel-Sim
-accelwattch_hybrid_perfsim_VOLTAGE                    0 # Get Chip Voltage for Accelwattch-Hybrid from Accel-Sim
-power_trace_enabled                    0 # produce a file for the power trace (1=On, 0=Off)
-power_trace_zlevel                     6 # Compression level of the power trace output log (0=no comp, 9=highest)
-steady_power_levels_enabled                    0 # produce a file for the steady power levels (1=On, 0=Off)
-steady_state_definition                  8:4 # allowed deviation:number of samples
-gpgpu_max_cycle                        0 # terminates gpu simulation early (0 = no limit)
-gpgpu_max_insn                         0 # terminates gpu simulation early (0 = no limit)
-gpgpu_max_cta                          0 # terminates gpu simulation early (0 = no limit)
-gpgpu_max_completed_cta                    0 # terminates gpu simulation early (0 = no limit)
-gpgpu_runtime_stat                   500 # display runtime statistics such as dram utilization {<freq>:<flag>}
-liveness_message_freq                    1 # Minimum number of seconds between simulation liveness messages (0 = always print)
-gpgpu_compute_capability_major                    8 # Major compute capability version number
-gpgpu_compute_capability_minor                    6 # Minor compute capability version number
-gpgpu_flush_l1_cache                    1 # Flush L1 cache at the end of each kernel call
-gpgpu_flush_l2_cache                    0 # Flush L2 cache at the end of each kernel call
-gpgpu_deadlock_detect                    1 # Stop the simulation at deadlock (1=on (default), 0=off)
-gpgpu_ptx_instruction_classification                    0 # if enabled will classify ptx instruction types per kernel (Max 255 kernels now)
-gpgpu_ptx_sim_mode                     0 # Select between Performance (default) or Functional simulation (1)
-gpgpu_clock_domains   735:735:735:3500.0 # Clock Domain Frequencies in MhZ {<Core Clock>:<ICNT Clock>:<L2 Clock>:<DRAM Clock>}
-gpgpu_max_concurrent_kernel                  128 # maximum kernels that can run concurrently on GPU, set this value according to max resident grids for your compute capability
-gpgpu_cflog_interval                    0 # Interval between each snapshot in control flow logger
-visualizer_enabled                     0 # Turn on visualizer output (1=On, 0=Off)
-visualizer_outputfile                 NULL # Specifies the output log file for visualizer
-visualizer_zlevel                      6 # Compression level of the visualizer output log (0=no comp, 9=highest)
-gpgpu_stack_size_limit                 1024 # GPU thread stack size
-gpgpu_heap_size_limit              8388608 # GPU malloc heap size 
-gpgpu_runtime_sync_depth_limit                    2 # GPU device runtime synchronize depth
-gpgpu_runtime_pending_launch_count_limit                 2048 # GPU device runtime pending launch count
-trace_enabled                          0 # Turn on traces
-trace_components                    none # comma seperated list of traces to enable. Complete list found in trace_streams.tup. Default none
-trace_sampling_core                    0 # The core which is printed using CORE_DPRINTF. Default 0
-trace_sampling_memory_partition                   -1 # The memory partition which is printed using MEMPART_DPRINTF. Default -1 (i.e. all)
-enable_ptx_file_line_stats                    1 # Turn on PTX source line statistic profiling. (1 = On)
-ptx_line_stats_filename gpgpu_inst_stats.txt # Output file for PTX source line statistics.
-gpgpu_kernel_launch_latency                 5000 # Kernel launch latency in cycles. Default: 0
-gpgpu_cdp_enabled                      0 # Turn on CDP
-gpgpu_TB_launch_latency                    0 # thread block launch latency in cycles. Default: 0
-trace               /benchrun/accelsim-sass/sm86_a4000/cuda6-transpose/input-repeat1-dimx128-dimy128/results/traces/kernelslist.g # traces kernel filetraces kernel file directory
-trace_opcode_latency_initiation_int                  2,2 # Opcode latencies and initiation for integers in trace driven mode <latency,initiation>
-trace_opcode_latency_initiation_sp                  2,1 # Opcode latencies and initiation for sp in trace driven mode <latency,initiation>
-trace_opcode_latency_initiation_dp                64,64 # Opcode latencies and initiation for dp in trace driven mode <latency,initiation>
-trace_opcode_latency_initiation_sfu                 21,8 # Opcode latencies and initiation for sfu in trace driven mode <latency,initiation>
-trace_opcode_latency_initiation_tensor                32,32 # Opcode latencies and initiation for tensor in trace driven mode <latency,initiation>
-trace_opcode_latency_initiation_spec_op_1                  4,4 # specialized unit config <latency,initiation>
-trace_opcode_latency_initiation_spec_op_2                200,4 # specialized unit config <latency,initiation>
-trace_opcode_latency_initiation_spec_op_3                32,32 # specialized unit config <latency,initiation>
-trace_opcode_latency_initiation_spec_op_4                  4,1 # specialized unit config <latency,initiation>
-trace_opcode_latency_initiation_spec_op_5                  4,4 # specialized unit config <latency,initiation>
-trace_opcode_latency_initiation_spec_op_6                  4,4 # specialized unit config <latency,initiation>
-trace_opcode_latency_initiation_spec_op_7                  4,4 # specialized unit config <latency,initiation>
-trace_opcode_latency_initiation_spec_op_8                  4,4 # specialized unit config <latency,initiation>
DRAM Timing Options:
nbk                                    16 # number of banks
CCD                                     4 # column to column delay
RRD                                    12 # minimal delay between activation of rows in different banks
RCD                                    24 # row to column delay
RAS                                    55 # time needed to activate row
RP                                     24 # time needed to precharge (deactivate) row
RC                                     78 # row cycle time
CDLR                                   10 # switching from write to read (changes tWTR)
WR                                     24 # last data-in to row precharge
CL                                     24 # CAS latency
WL                                      8 # Write latency
nbkgrp                                  4 # number of bank groups
CCDL                                    6 # column to column delay between accesses to different bank groups
RTPL                                    4 # read to precharge delay between accesses to different bank groups
Total number of memory sub partition = 32
addr_dec_mask[CHIP]  = 0000000000000f00 	high:12 low:8
addr_dec_mask[BK]    = 0000000000070080 	high:19 low:7
addr_dec_mask[ROW]   = 00000000fff80000 	high:32 low:19
addr_dec_mask[COL]   = 000000000000f07f 	high:16 low:0
addr_dec_mask[BURST] = 000000000000001f 	high:5 low:0
sub_partition_id_mask = 0000000000000080
GPGPU-Sim uArch: clock freqs: 735000000.000000:735000000.000000:735000000.000000:3500000000.000000
GPGPU-Sim uArch: clock periods: 0.00000000136054421769:0.00000000136054421769:0.00000000136054421769:0.00000000028571428571
*** Initializing Memory Statistics ***
GPGPU-Sim uArch: performance model initialization complete.
launching memcpy command : MemcpyHtoD,0x00007fa01cf00000,65536
Processing kernel /benchrun/accelsim-sass/sm86_a4000/cuda6-transpose/input-repeat1-dimx128-dimy128/results/traces/kernel-1.traceg
-kernel name = _Z4copyPfS_ii
-kernel id = 1
-grid dim = (8,8,1)
-block dim = (16,16,1)
-shmem = 0
-nregs = 8
-binary version = 86
-cuda stream id = 0
-shmem base_addr = 0x00007fa04e000000
-local mem base_addr = 0x00007fa04c000000
-nvbit version = 1.5.5
-accelsim tracer version = 3
Header info loaded for kernel command : /benchrun/accelsim-sass/sm86_a4000/cuda6-transpose/input-repeat1-dimx128-dimy128/results/traces/kernel-1.traceg
launching kernel name: _Z4copyPfS_ii uid: 1
GPGPU-Sim uArch: Shader 0 bind to kernel 1 '_Z4copyPfS_ii'
GPGPU-Sim uArch: CTA/core = 6, limited by: threads
GPGPU-Sim: Reconfigure L1 cache to 128KB
thread block = 0,0,0
GPGPU-Sim uArch: Shader 1 bind to kernel 1 '_Z4copyPfS_ii'
thread block = 1,0,0
GPGPU-Sim uArch: Shader 2 bind to kernel 1 '_Z4copyPfS_ii'
thread block = 2,0,0
GPGPU-Sim uArch: Shader 3 bind to kernel 1 '_Z4copyPfS_ii'
thread block = 3,0,0
GPGPU-Sim uArch: Shader 4 bind to kernel 1 '_Z4copyPfS_ii'
thread block = 4,0,0
GPGPU-Sim uArch: Shader 5 bind to kernel 1 '_Z4copyPfS_ii'
thread block = 5,0,0
GPGPU-Sim uArch: Shader 6 bind to kernel 1 '_Z4copyPfS_ii'
thread block = 6,0,0
GPGPU-Sim uArch: Shader 7 bind to kernel 1 '_Z4copyPfS_ii'
thread block = 7,0,0
GPGPU-Sim uArch: Shader 8 bind to kernel 1 '_Z4copyPfS_ii'
thread block = 0,1,0
GPGPU-Sim uArch: Shader 9 bind to kernel 1 '_Z4copyPfS_ii'
thread block = 1,1,0
GPGPU-Sim uArch: Shader 10 bind to kernel 1 '_Z4copyPfS_ii'
thread block = 2,1,0
GPGPU-Sim uArch: Shader 11 bind to kernel 1 '_Z4copyPfS_ii'
thread block = 3,1,0
GPGPU-Sim uArch: Shader 12 bind to kernel 1 '_Z4copyPfS_ii'
thread block = 4,1,0
GPGPU-Sim uArch: Shader 13 bind to kernel 1 '_Z4copyPfS_ii'
thread block = 5,1,0
GPGPU-Sim uArch: Shader 14 bind to kernel 1 '_Z4copyPfS_ii'
thread block = 6,1,0
GPGPU-Sim uArch: Shader 15 bind to kernel 1 '_Z4copyPfS_ii'
thread block = 7,1,0
GPGPU-Sim uArch: Shader 16 bind to kernel 1 '_Z4copyPfS_ii'
thread block = 0,2,0
GPGPU-Sim uArch: Shader 17 bind to kernel 1 '_Z4copyPfS_ii'
thread block = 1,2,0
GPGPU-Sim uArch: Shader 18 bind to kernel 1 '_Z4copyPfS_ii'
thread block = 2,2,0
GPGPU-Sim uArch: Shader 19 bind to kernel 1 '_Z4copyPfS_ii'
thread block = 3,2,0
GPGPU-Sim uArch: Shader 20 bind to kernel 1 '_Z4copyPfS_ii'
thread block = 4,2,0
GPGPU-Sim uArch: Shader 21 bind to kernel 1 '_Z4copyPfS_ii'
thread block = 5,2,0
GPGPU-Sim uArch: Shader 22 bind to kernel 1 '_Z4copyPfS_ii'
thread block = 6,2,0
GPGPU-Sim uArch: Shader 23 bind to kernel 1 '_Z4copyPfS_ii'
thread block = 7,2,0
GPGPU-Sim uArch: Shader 24 bind to kernel 1 '_Z4copyPfS_ii'
thread block = 0,3,0
GPGPU-Sim uArch: Shader 25 bind to kernel 1 '_Z4copyPfS_ii'
thread block = 1,3,0
GPGPU-Sim uArch: Shader 26 bind to kernel 1 '_Z4copyPfS_ii'
thread block = 2,3,0
GPGPU-Sim uArch: Shader 27 bind to kernel 1 '_Z4copyPfS_ii'
thread block = 3,3,0
GPGPU-Sim uArch: Shader 28 bind to kernel 1 '_Z4copyPfS_ii'
thread block = 4,3,0
GPGPU-Sim uArch: Shader 29 bind to kernel 1 '_Z4copyPfS_ii'
thread block = 5,3,0
GPGPU-Sim uArch: Shader 30 bind to kernel 1 '_Z4copyPfS_ii'
thread block = 6,3,0
GPGPU-Sim uArch: Shader 31 bind to kernel 1 '_Z4copyPfS_ii'
thread block = 7,3,0
GPGPU-Sim uArch: Shader 32 bind to kernel 1 '_Z4copyPfS_ii'
thread block = 0,4,0
GPGPU-Sim uArch: Shader 33 bind to kernel 1 '_Z4copyPfS_ii'
thread block = 1,4,0
GPGPU-Sim uArch: Shader 34 bind to kernel 1 '_Z4copyPfS_ii'
thread block = 2,4,0
GPGPU-Sim uArch: Shader 35 bind to kernel 1 '_Z4copyPfS_ii'
thread block = 3,4,0
GPGPU-Sim uArch: Shader 36 bind to kernel 1 '_Z4copyPfS_ii'
thread block = 4,4,0
GPGPU-Sim uArch: Shader 37 bind to kernel 1 '_Z4copyPfS_ii'
thread block = 5,4,0
GPGPU-Sim uArch: Shader 38 bind to kernel 1 '_Z4copyPfS_ii'
thread block = 6,4,0
GPGPU-Sim uArch: Shader 39 bind to kernel 1 '_Z4copyPfS_ii'
thread block = 7,4,0
GPGPU-Sim uArch: Shader 40 bind to kernel 1 '_Z4copyPfS_ii'
thread block = 0,5,0
GPGPU-Sim uArch: Shader 41 bind to kernel 1 '_Z4copyPfS_ii'
thread block = 1,5,0
GPGPU-Sim uArch: Shader 42 bind to kernel 1 '_Z4copyPfS_ii'
thread block = 2,5,0
GPGPU-Sim uArch: Shader 43 bind to kernel 1 '_Z4copyPfS_ii'
thread block = 3,5,0
GPGPU-Sim uArch: Shader 44 bind to kernel 1 '_Z4copyPfS_ii'
thread block = 4,5,0
GPGPU-Sim uArch: Shader 45 bind to kernel 1 '_Z4copyPfS_ii'
thread block = 5,5,0
GPGPU-Sim uArch: Shader 46 bind to kernel 1 '_Z4copyPfS_ii'
thread block = 6,5,0
GPGPU-Sim uArch: Shader 47 bind to kernel 1 '_Z4copyPfS_ii'
thread block = 7,5,0
thread block = 0,6,0
thread block = 1,6,0
thread block = 2,6,0
thread block = 3,6,0
thread block = 4,6,0
thread block = 5,6,0
thread block = 6,6,0
thread block = 7,6,0
thread block = 0,7,0
thread block = 1,7,0
thread block = 2,7,0
thread block = 3,7,0
thread block = 4,7,0
thread block = 5,7,0
thread block = 6,7,0
thread block = 7,7,0
Destroy streams for kernel 1: size 0
kernel_name = _Z4copyPfS_ii 
kernel_launch_uid = 1 
gpu_sim_cycle = 5969
gpu_sim_insn = 245760
gpu_ipc =      41.1727
gpu_tot_sim_cycle = 5969
gpu_tot_sim_insn = 245760
gpu_tot_ipc =      41.1727
gpu_tot_issued_cta = 64
gpu_occupancy = 21.4635% 
gpu_tot_occupancy = 21.4635% 
max_total_param_size = 0
gpu_stall_dramfull = 0
gpu_stall_icnt2sh    = 0
partiton_level_parallism =       0.6862
partiton_level_parallism_total  =       0.6862
partiton_level_parallism_util =      13.6533
partiton_level_parallism_util_total  =      13.6533
L2_BW  =      16.1397 GB/Sec
L2_BW_total  =      16.1397 GB/Sec
gpu_total_sim_rate=81920

========= Core cache stats =========
L1I_cache:
	L1I_total_cache_accesses = 0
	L1I_total_cache_misses = 0
	L1I_total_cache_pending_hits = 0
	L1I_total_cache_reservation_fails = 0
L1D_cache:
	L1D_cache_core[0]: Access = 128, Miss = 128, Miss_rate = 1.000, Pending_hits = 0, Reservation_fails = 19
	L1D_cache_core[1]: Access = 128, Miss = 128, Miss_rate = 1.000, Pending_hits = 0, Reservation_fails = 19
	L1D_cache_core[2]: Access = 128, Miss = 128, Miss_rate = 1.000, Pending_hits = 0, Reservation_fails = 19
	L1D_cache_core[3]: Access = 128, Miss = 128, Miss_rate = 1.000, Pending_hits = 0, Reservation_fails = 19
	L1D_cache_core[4]: Access = 128, Miss = 128, Miss_rate = 1.000, Pending_hits = 0, Reservation_fails = 19
	L1D_cache_core[5]: Access = 128, Miss = 128, Miss_rate = 1.000, Pending_hits = 0, Reservation_fails = 19
	L1D_cache_core[6]: Access = 128, Miss = 128, Miss_rate = 1.000, Pending_hits = 0, Reservation_fails = 18
	L1D_cache_core[7]: Access = 128, Miss = 128, Miss_rate = 1.000, Pending_hits = 0, Reservation_fails = 18
	L1D_cache_core[8]: Access = 128, Miss = 128, Miss_rate = 1.000, Pending_hits = 0, Reservation_fails = 18
	L1D_cache_core[9]: Access = 128, Miss = 128, Miss_rate = 1.000, Pending_hits = 0, Reservation_fails = 18
	L1D_cache_core[10]: Access = 128, Miss = 128, Miss_rate = 1.000, Pending_hits = 0, Reservation_fails = 18
	L1D_cache_core[11]: Access = 128, Miss = 128, Miss_rate = 1.000, Pending_hits = 0, Reservation_fails = 18
	L1D_cache_core[12]: Access = 128, Miss = 128, Miss_rate = 1.000, Pending_hits = 0, Reservation_fails = 18
	L1D_cache_core[13]: Access = 128, Miss = 128, Miss_rate = 1.000, Pending_hits = 0, Reservation_fails = 18
	L1D_cache_core[14]: Access = 128, Miss = 128, Miss_rate = 1.000, Pending_hits = 0, Reservation_fails = 18
	L1D_cache_core[15]: Access = 128, Miss = 128, Miss_rate = 1.000, Pending_hits = 0, Reservation_fails = 18
	L1D_cache_core[16]: Access = 64, Miss = 64, Miss_rate = 1.000, Pending_hits = 0, Reservation_fails = 2
	L1D_cache_core[17]: Access = 64, Miss = 64, Miss_rate = 1.000, Pending_hits = 0, Reservation_fails = 2
	L1D_cache_core[18]: Access = 64, Miss = 64, Miss_rate = 1.000, Pending_hits = 0, Reservation_fails = 2
	L1D_cache_core[19]: Access = 64, Miss = 64, Miss_rate = 1.000, Pending_hits = 0, Reservation_fails = 2
	L1D_cache_core[20]: Access = 64, Miss = 64, Miss_rate = 1.000, Pending_hits = 0, Reservation_fails = 2
	L1D_cache_core[21]: Access = 64, Miss = 64, Miss_rate = 1.000, Pending_hits = 0, Reservation_fails = 2
	L1D_cache_core[22]: Access = 64, Miss = 64, Miss_rate = 1.000, Pending_hits = 0, Reservation_fails = 2
	L1D_cache_core[23]: Access = 64, Miss = 64, Miss_rate = 1.000, Pending_hits = 0, Reservation_fails = 2
	L1D_cache_core[24]: Access = 64, Miss = 64, Miss_rate = 1.000, Pending_hits = 0, Reservation_fails = 2
	L1D_cache_core[25]: Access = 64, Miss = 64, Miss_rate = 1.000, Pending_hits = 0, Reservation_fails = 2
	L1D_cache_core[26]: Access = 64, Miss = 64, Miss_rate = 1.000, Pending_hits = 0, Reservation_fails = 2
	L1D_cache_core[27]: Access = 64, Miss = 64, Miss_rate = 1.000, Pending_hits = 0, Reservation_fails = 2
	L1D_cache_core[28]: Access = 64, Miss = 64, Miss_rate = 1.000, Pending_hits = 0, Reservation_fails = 2
	L1D_cache_core[29]: Access = 64, Miss = 64, Miss_rate = 1.000, Pending_hits = 0, Reservation_fails = 2
	L1D_cache_core[30]: Access = 64, Miss = 64, Miss_rate = 1.000, Pending_hits = 0, Reservation_fails = 2
	L1D_cache_core[31]: Access = 64, Miss = 64, Miss_rate = 1.000, Pending_hits = 0, Reservation_fails = 2
	L1D_cache_core[32]: Access = 64, Miss = 64, Miss_rate = 1.000, Pending_hits = 0, Reservation_fails = 2
	L1D_cache_core[33]: Access = 64, Miss = 64, Miss_rate = 1.000, Pending_hits = 0, Reservation_fails = 2
	L1D_cache_core[34]: Access = 64, Miss = 64, Miss_rate = 1.000, Pending_hits = 0, Reservation_fails = 2
	L1D_cache_core[35]: Access = 64, Miss = 64, Miss_rate = 1.000, Pending_hits = 0, Reservation_fails = 2
	L1D_cache_core[36]: Access = 64, Miss = 64, Miss_rate = 1.000, Pending_hits = 0, Reservation_fails = 2
	L1D_cache_core[37]: Access = 64, Miss = 64, Miss_rate = 1.000, Pending_hits = 0, Reservation_fails = 2
	L1D_cache_core[38]: Access = 64, Miss = 64, Miss_rate = 1.000, Pending_hits = 0, Reservation_fails = 2
	L1D_cache_core[39]: Access = 64, Miss = 64, Miss_rate = 1.000, Pending_hits = 0, Reservation_fails = 2
	L1D_cache_core[40]: Access = 64, Miss = 64, Miss_rate = 1.000, Pending_hits = 0, Reservation_fails = 2
	L1D_cache_core[41]: Access = 64, Miss = 64, Miss_rate = 1.000, Pending_hits = 0, Reservation_fails = 2
	L1D_cache_core[42]: Access = 64, Miss = 64, Miss_rate = 1.000, Pending_hits = 0, Reservation_fails = 2
	L1D_cache_core[43]: Access = 64, Miss = 64, Miss_rate = 1.000, Pending_hits = 0, Reservation_fails = 2
	L1D_cache_core[44]: Access = 64, Miss = 64, Miss_rate = 1.000, Pending_hits = 0, Reservation_fails = 2
	L1D_cache_core[45]: Access = 64, Miss = 64, Miss_rate = 1.000, Pending_hits = 0, Reservation_fails = 2
	L1D_cache_core[46]: Access = 64, Miss = 64, Miss_rate = 1.000, Pending_hits = 0, Reservation_fails = 2
	L1D_cache_core[47]: Access = 64, Miss = 64, Miss_rate = 1.000, Pending_hits = 0, Reservation_fails = 2
	L1D_total_cache_accesses = 4096
	L1D_total_cache_misses = 4096
	L1D_total_cache_miss_rate = 1.0000
	L1D_total_cache_pending_hits = 0
	L1D_total_cache_reservation_fails = 358
	L1D_cache_data_port_util = 0.000
	L1D_cache_fill_port_util = 0.047
L1C_cache:
	L1C_total_cache_accesses = 0
	L1C_total_cache_misses = 0
	L1C_total_cache_pending_hits = 0
	L1C_total_cache_reservation_fails = 0
L1T_cache:
	L1T_total_cache_accesses = 0
	L1T_total_cache_misses = 0
	L1T_total_cache_pending_hits = 0
	L1T_total_cache_reservation_fails = 0

Total_core_cache_stats:
	Total_core_cache_stats_breakdown[GLOBAL_ACC_R][HIT] = 0
	Total_core_cache_stats_breakdown[GLOBAL_ACC_R][HIT_RESERVED] = 0
	Total_core_cache_stats_breakdown[GLOBAL_ACC_R][MISS] = 1024
	Total_core_cache_stats_breakdown[GLOBAL_ACC_R][RESERVATION_FAIL] = 352
	Total_core_cache_stats_breakdown[GLOBAL_ACC_R][SECTOR_MISS] = 1024
	Total_core_cache_stats_breakdown[GLOBAL_ACC_R][MSHR_HIT] = 0
	Total_core_cache_stats_breakdown[LOCAL_ACC_R][HIT] = 0
	Total_core_cache_stats_breakdown[LOCAL_ACC_R][HIT_RESERVED] = 0
	Total_core_cache_stats_breakdown[LOCAL_ACC_R][MISS] = 0
	Total_core_cache_stats_breakdown[LOCAL_ACC_R][RESERVATION_FAIL] = 0
	Total_core_cache_stats_breakdown[LOCAL_ACC_R][SECTOR_MISS] = 0
	Total_core_cache_stats_breakdown[LOCAL_ACC_R][MSHR_HIT] = 0
	Total_core_cache_stats_breakdown[CONST_ACC_R][HIT] = 0
	Total_core_cache_stats_breakdown[CONST_ACC_R][HIT_RESERVED] = 0
	Total_core_cache_stats_breakdown[CONST_ACC_R][MISS] = 0
	Total_core_cache_stats_breakdown[CONST_ACC_R][RESERVATION_FAIL] = 0
	Total_core_cache_stats_breakdown[CONST_ACC_R][SECTOR_MISS] = 0
	Total_core_cache_stats_breakdown[CONST_ACC_R][MSHR_HIT] = 0
	Total_core_cache_stats_breakdown[TEXTURE_ACC_R][HIT] = 0
	Total_core_cache_stats_breakdown[TEXTURE_ACC_R][HIT_RESERVED] = 0
	Total_core_cache_stats_breakdown[TEXTURE_ACC_R][MISS] = 0
	Total_core_cache_stats_breakdown[TEXTURE_ACC_R][RESERVATION_FAIL] = 0
	Total_core_cache_stats_breakdown[TEXTURE_ACC_R][SECTOR_MISS] = 0
	Total_core_cache_stats_breakdown[TEXTURE_ACC_R][MSHR_HIT] = 0
	Total_core_cache_stats_breakdown[GLOBAL_ACC_W][HIT] = 0
	Total_core_cache_stats_breakdown[GLOBAL_ACC_W][HIT_RESERVED] = 0
	Total_core_cache_stats_breakdown[GLOBAL_ACC_W][MISS] = 1024
	Total_core_cache_stats_breakdown[GLOBAL_ACC_W][RESERVATION_FAIL] = 6
	Total_core_cache_stats_breakdown[GLOBAL_ACC_W][SECTOR_MISS] = 1024
	Total_core_cache_stats_breakdown[GLOBAL_ACC_W][MSHR_HIT] = 0
	Total_core_cache_stats_breakdown[LOCAL_ACC_W][HIT] = 0
	Total_core_cache_stats_breakdown[LOCAL_ACC_W][HIT_RESERVED] = 0
	Total_core_cache_stats_breakdown[LOCAL_ACC_W][MISS] = 0
	Total_core_cache_stats_breakdown[LOCAL_ACC_W][RESERVATION_FAIL] = 0
	Total_core_cache_stats_breakdown[LOCAL_ACC_W][SECTOR_MISS] = 0
	Total_core_cache_stats_breakdown[LOCAL_ACC_W][MSHR_HIT] = 0
	Total_core_cache_stats_breakdown[L1_WRBK_ACC][HIT] = 0
	Total_core_cache_stats_breakdown[L1_WRBK_ACC][HIT_RESERVED] = 0
	Total_core_cache_stats_breakdown[L1_WRBK_ACC][MISS] = 0
	Total_core_cache_stats_breakdown[L1_WRBK_ACC][RESERVATION_FAIL] = 0
	Total_core_cache_stats_breakdown[L1_WRBK_ACC][SECTOR_MISS] = 0
	Total_core_cache_stats_breakdown[L1_WRBK_ACC][MSHR_HIT] = 0
	Total_core_cache_stats_breakdown[L2_WRBK_ACC][HIT] = 0
	Total_core_cache_stats_breakdown[L2_WRBK_ACC][HIT_RESERVED] = 0
	Total_core_cache_stats_breakdown[L2_WRBK_ACC][MISS] = 0
	Total_core_cache_stats_breakdown[L2_WRBK_ACC][RESERVATION_FAIL] = 0
	Total_core_cache_stats_breakdown[L2_WRBK_ACC][SECTOR_MISS] = 0
	Total_core_cache_stats_breakdown[L2_WRBK_ACC][MSHR_HIT] = 0
	Total_core_cache_stats_breakdown[INST_ACC_R][HIT] = 0
	Total_core_cache_stats_breakdown[INST_ACC_R][HIT_RESERVED] = 0
	Total_core_cache_stats_breakdown[INST_ACC_R][MISS] = 0
	Total_core_cache_stats_breakdown[INST_ACC_R][RESERVATION_FAIL] = 0
	Total_core_cache_stats_breakdown[INST_ACC_R][SECTOR_MISS] = 0
	Total_core_cache_stats_breakdown[INST_ACC_R][MSHR_HIT] = 0
	Total_core_cache_stats_breakdown[L1_WR_ALLOC_R][HIT] = 0
	Total_core_cache_stats_breakdown[L1_WR_ALLOC_R][HIT_RESERVED] = 0
	Total_core_cache_stats_breakdown[L1_WR_ALLOC_R][MISS] = 0
	Total_core_cache_stats_breakdown[L1_WR_ALLOC_R][RESERVATION_FAIL] = 0
	Total_core_cache_stats_breakdown[L1_WR_ALLOC_R][SECTOR_MISS] = 0
	Total_core_cache_stats_breakdown[L1_WR_ALLOC_R][MSHR_HIT] = 0
	Total_core_cache_stats_breakdown[L2_WR_ALLOC_R][HIT] = 0
	Total_core_cache_stats_breakdown[L2_WR_ALLOC_R][HIT_RESERVED] = 0
	Total_core_cache_stats_breakdown[L2_WR_ALLOC_R][MISS] = 0
	Total_core_cache_stats_breakdown[L2_WR_ALLOC_R][RESERVATION_FAIL] = 0
	Total_core_cache_stats_breakdown[L2_WR_ALLOC_R][SECTOR_MISS] = 0
	Total_core_cache_stats_breakdown[L2_WR_ALLOC_R][MSHR_HIT] = 0
	Total_core_cache_stats_breakdown[GLOBAL_ACC_R][TOTAL_ACCESS] = 2048
	Total_core_cache_stats_breakdown[GLOBAL_ACC_W][TOTAL_ACCESS] = 2048

Total_core_cache_fail_stats:
	Total_core_cache_fail_stats_breakdown[GLOBAL_ACC_R][MISS_QUEUE_FULL] = 352
	Total_core_cache_fail_stats_breakdown[GLOBAL_ACC_W][MISS_QUEUE_FULL] = 6
ctas_completed 64, Shader 0 warp_id issue ditsribution:
warp_id:
0, 1, 2, 3, 4, 5, 6, 7, 8, 9, 10, 11, 12, 13, 14, 15, 
distro:
15, 15, 15, 15, 15, 15, 15, 15, 15, 15, 15, 15, 15, 15, 15, 15, 
gpgpu_n_tot_thrd_icount = 245760
gpgpu_n_tot_w_icount = 7680
gpgpu_n_stall_shd_mem = 1024
gpgpu_n_mem_read_local = 0
gpgpu_n_mem_write_local = 0
gpgpu_n_mem_read_global = 2048
gpgpu_n_mem_write_global = 2048
gpgpu_n_mem_texture = 0
gpgpu_n_mem_const = 0
gpgpu_n_load_insn  = 16384
gpgpu_n_store_insn = 16384
gpgpu_n_shmem_insn = 0
gpgpu_n_sstarr_insn = 0
gpgpu_n_tex_insn = 0
gpgpu_n_const_mem_insn = 0
gpgpu_n_param_mem_insn = 0
gpgpu_n_shmem_bkconflict = 0
gpgpu_n_cache_bkconflict = 0
gpgpu_n_intrawarp_mshr_merge = 0
gpgpu_n_cmem_portconflict = 0
gpgpu_stall_shd_mem[c_mem][resource_stall] = 0
gpgpu_stall_shd_mem[s_mem][bk_conf] = 0
gpgpu_stall_shd_mem[gl_mem][resource_stall] = 1024
gpgpu_stall_shd_mem[gl_mem][coal_stall] = 0
gpgpu_stall_shd_mem[gl_mem][data_port_stall] = 0
gpu_reg_bank_conflict_stalls = 0
Warp Occupancy Distribution:
Stall:1712	W0_Idle:50940	W0_Scoreboard:113044	W1:0	W2:0	W3:0	W4:0	W5:0	W6:0	W7:0	W8:0	W9:0	W10:0	W11:0	W12:0	W13:0	W14:0	W15:0	W16:0	W17:0	W18:0	W19:0	W20:0	W21:0	W22:0	W23:0	W24:0	W25:0	W26:0	W27:0	W28:0	W29:0	W30:0	W31:0	W32:7680
single_issue_nums: WS0:1920	WS1:1920	WS2:1920	WS3:1920	
dual_issue_nums: WS0:0	WS1:0	WS2:0	WS3:0	
traffic_breakdown_coretomem[GLOBAL_ACC_R] = 16384 {8:2048,}
traffic_breakdown_coretomem[GLOBAL_ACC_W] = 81920 {40:2048,}
traffic_breakdown_memtocore[GLOBAL_ACC_R] = 81920 {40:2048,}
traffic_breakdown_memtocore[GLOBAL_ACC_W] = 16384 {8:2048,}
maxmflatency = 600 
max_icnt2mem_latency = 128 
maxmrqlatency = 20 
max_icnt2sh_latency = 21 
mrq_lat_table:629 	237 	584 	560 	38 	0 	0 	0 	0 	0 	0 	0 	0 	0 	0 	0 	0 	0 	0 	0 	0 	0 	0 	0 	0 	0 	0 	0 	0 	0 	0 	0 	
dq_lat_table:0 	0 	0 	0 	0 	0 	0 	0 	0 	0 	0 	0 	0 	0 	0 	0 	0 	0 	0 	0 	0 	0 	0 	0 	0 	0 	0 	0 	0 	0 	0 	0 	
mf_lat_table:0 	0 	0 	0 	0 	0 	0 	1909 	371 	1816 	0 	0 	0 	0 	0 	0 	0 	0 	0 	0 	0 	0 	0 	0 	0 	0 	0 	0 	0 	0 	0 	0 	
icnt2mem_lat_table:0 	0 	0 	0 	0 	2485 	1605 	6 	0 	0 	0 	0 	0 	0 	0 	0 	0 	0 	0 	0 	0 	0 	0 	0 	
icnt2sh_lat_table:0 	3545 	321 	198 	32 	0 	0 	0 	0 	0 	0 	0 	0 	0 	0 	0 	0 	0 	0 	0 	0 	0 	0 	0 	
mf_lat_pw_table:0 	0 	0 	0 	0 	0 	0 	0 	0 	0 	0 	0 	0 	0 	0 	0 	0 	0 	0 	0 	0 	0 	0 	0 	0 	0 	0 	0 	0 	0 	0 	0 	
maximum concurrent accesses to same row:
dram[0]:         0         0         0         0         0         0         0         0         0         0         0         0         0         0         0         0 
dram[1]:         0         0         0         0         0         0         0         0         0         0         0         0         0         0         0         0 
dram[2]:         0         0         0         0         0         0         0         0         0         0         0         0         0         0         0         0 
dram[3]:         0         0         0         0         0         0         0         0         0         0         0         0         0         0         0         0 
dram[4]:         0         0         0         0         0         0         0         0         0         0         0         0         0         0         0         0 
dram[5]:         0         0         0         0         0         0         0         0         0         0         0         0         0         0         0         0 
dram[6]:         0         0         0         0         0         0         0         0         0         0         0         0         0         0         0         0 
dram[7]:         0         0         0         0         0         0         0         0         0         0         0         0         0         0         0         0 
dram[8]:         0         0         0         0         0         0         0         0         0         0         0         0         0         0         0         0 
dram[9]:         0         0         0         0         0         0         0         0         0         0         0         0         0         0         0         0 
dram[10]:         0         0         0         0         0         0         0         0         0         0         0         0         0         0         0         0 
dram[11]:         0         0         0         0         0         0         0         0         0         0         0         0         0         0         0         0 
dram[12]:         0         0         0         0         0         0         0         0         0         0         0         0         0         0         0         0 
dram[13]:         0         0         0         0         0         0         0         0         0         0         0         0         0         0         0         0 
dram[14]:         0         0         0         0         0         0         0         0         0         0         0         0         0         0         0         0 
dram[15]:         0         0         0         0         0         0         0         0         0         0         0         0         0         0         0         0 
maximum service time to same row:
dram[0]:      5538      5538         0         0         0         0         0         0         0         0         0         0         0         0         0         0 
dram[1]:      5538      5538         0         0         0         0         0         0         0         0         0         0         0         0         0         0 
dram[2]:      5538      5538         0         0         0         0         0         0         0         0         0         0         0         0         0         0 
dram[3]:      5538      5538         0         0         0         0         0         0         0         0         0         0         0         0         0         0 
dram[4]:      5545      5545         0         0         0         0         0         0         0         0         0         0         0         0         0         0 
dram[5]:      5545      5545         0         0         0         0         0         0         0         0         0         0         0         0         0         0 
dram[6]:      5546      5546         0         0         0         0         0         0         0         0         0         0         0         0         0         0 
dram[7]:      5546      5546         0         0         0         0         0         0         0         0         0         0         0         0         0         0 
dram[8]:      5544      5544         0         0         0         0         0         0         0         0         0         0         0         0         0         0 
dram[9]:      5544      5544         0         0         0         0         0         0         0         0         0         0         0         0         0         0 
dram[10]:      5545      5545         0         0         0         0         0         0         0         0         0         0         0         0         0         0 
dram[11]:      5545      5545         0         0         0         0         0         0         0         0         0         0         0         0         0         0 
dram[12]:      5538      5538         0         0         0         0         0         0         0         0         0         0         0         0         0         0 
dram[13]:      5538      5538         0         0         0         0         0         0         0         0         0         0         0         0         0         0 
dram[14]:      5538      5538         0         0         0         0         0         0         0         0         0         0         0         0         0         0 
dram[15]:      5538      5538         0         0         0         0         0         0         0         0         0         0         0         0         0         0 
average row accesses per activate:
dram[0]: 64.000000 64.000000      -nan      -nan      -nan      -nan      -nan      -nan      -nan      -nan      -nan      -nan      -nan      -nan      -nan      -nan 
dram[1]: 64.000000 64.000000      -nan      -nan      -nan      -nan      -nan      -nan      -nan      -nan      -nan      -nan      -nan      -nan      -nan      -nan 
dram[2]: 64.000000 64.000000      -nan      -nan      -nan      -nan      -nan      -nan      -nan      -nan      -nan      -nan      -nan      -nan      -nan      -nan 
dram[3]: 64.000000 64.000000      -nan      -nan      -nan      -nan      -nan      -nan      -nan      -nan      -nan      -nan      -nan      -nan      -nan      -nan 
dram[4]: 64.000000 64.000000      -nan      -nan      -nan      -nan      -nan      -nan      -nan      -nan      -nan      -nan      -nan      -nan      -nan      -nan 
dram[5]: 64.000000 64.000000      -nan      -nan      -nan      -nan      -nan      -nan      -nan      -nan      -nan      -nan      -nan      -nan      -nan      -nan 
dram[6]: 64.000000 64.000000      -nan      -nan      -nan      -nan      -nan      -nan      -nan      -nan      -nan      -nan      -nan      -nan      -nan      -nan 
dram[7]: 64.000000 64.000000      -nan      -nan      -nan      -nan      -nan      -nan      -nan      -nan      -nan      -nan      -nan      -nan      -nan      -nan 
dram[8]: 64.000000 64.000000      -nan      -nan      -nan      -nan      -nan      -nan      -nan      -nan      -nan      -nan      -nan      -nan      -nan      -nan 
dram[9]: 64.000000 64.000000      -nan      -nan      -nan      -nan      -nan      -nan      -nan      -nan      -nan      -nan      -nan      -nan      -nan      -nan 
dram[10]: 64.000000 64.000000      -nan      -nan      -nan      -nan      -nan      -nan      -nan      -nan      -nan      -nan      -nan      -nan      -nan      -nan 
dram[11]: 64.000000 64.000000      -nan      -nan      -nan      -nan      -nan      -nan      -nan      -nan      -nan      -nan      -nan      -nan      -nan      -nan 
dram[12]: 64.000000 64.000000      -nan      -nan      -nan      -nan      -nan      -nan      -nan      -nan      -nan      -nan      -nan      -nan      -nan      -nan 
dram[13]: 64.000000 64.000000      -nan      -nan      -nan      -nan      -nan      -nan      -nan      -nan      -nan      -nan      -nan      -nan      -nan      -nan 
dram[14]: 64.000000 64.000000      -nan      -nan      -nan      -nan      -nan      -nan      -nan      -nan      -nan      -nan      -nan      -nan      -nan      -nan 
dram[15]: 64.000000 64.000000      -nan      -nan      -nan      -nan      -nan      -nan      -nan      -nan      -nan      -nan      -nan      -nan      -nan      -nan 
average row locality = 2048/32 = 64.000000
number of total memory accesses made:
dram[0]:         0         0         0         0         0         0         0         0         0         0         0         0         0         0         0         0 
dram[1]:         0         0         0         0         0         0         0         0         0         0         0         0         0         0         0         0 
dram[2]:         0         0         0         0         0         0         0         0         0         0         0         0         0         0         0         0 
dram[3]:         0         0         0         0         0         0         0         0         0         0         0         0         0         0         0         0 
dram[4]:         0         0         0         0         0         0         0         0         0         0         0         0         0         0         0         0 
dram[5]:         0         0         0         0         0         0         0         0         0         0         0         0         0         0         0         0 
dram[6]:         0         0         0         0         0         0         0         0         0         0         0         0         0         0         0         0 
dram[7]:         0         0         0         0         0         0         0         0         0         0         0         0         0         0         0         0 
dram[8]:         0         0         0         0         0         0         0         0         0         0         0         0         0         0         0         0 
dram[9]:         0         0         0         0         0         0         0         0         0         0         0         0         0         0         0         0 
dram[10]:         0         0         0         0         0         0         0         0         0         0         0         0         0         0         0         0 
dram[11]:         0         0         0         0         0         0         0         0         0         0         0         0         0         0         0         0 
dram[12]:         0         0         0         0         0         0         0         0         0         0         0         0         0         0         0         0 
dram[13]:         0         0         0         0         0         0         0         0         0         0         0         0         0         0         0         0 
dram[14]:         0         0         0         0         0         0         0         0         0         0         0         0         0         0         0         0 
dram[15]:         0         0         0         0         0         0         0         0         0         0         0         0         0         0         0         0 
total accesses: 0
min_bank_accesses = 0!
min_chip_accesses = 0!
number of total read accesses:
dram[0]:        64        64         0         0         0         0         0         0         0         0         0         0         0         0         0         0 
dram[1]:        64        64         0         0         0         0         0         0         0         0         0         0         0         0         0         0 
dram[2]:        64        64         0         0         0         0         0         0         0         0         0         0         0         0         0         0 
dram[3]:        64        64         0         0         0         0         0         0         0         0         0         0         0         0         0         0 
dram[4]:        64        64         0         0         0         0         0         0         0         0         0         0         0         0         0         0 
dram[5]:        64        64         0         0         0         0         0         0         0         0         0         0         0         0         0         0 
dram[6]:        64        64         0         0         0         0         0         0         0         0         0         0         0         0         0         0 
dram[7]:        64        64         0         0         0         0         0         0         0         0         0         0         0         0         0         0 
dram[8]:        64        64         0         0         0         0         0         0         0         0         0         0         0         0         0         0 
dram[9]:        64        64         0         0         0         0         0         0         0         0         0         0         0         0         0         0 
dram[10]:        64        64         0         0         0         0         0         0         0         0         0         0         0         0         0         0 
dram[11]:        64        64         0         0         0         0         0         0         0         0         0         0         0         0         0         0 
dram[12]:        64        64         0         0         0         0         0         0         0         0         0         0         0         0         0         0 
dram[13]:        64        64         0         0         0         0         0         0         0         0         0         0         0         0         0         0 
dram[14]:        64        64         0         0         0         0         0         0         0         0         0         0         0         0         0         0 
dram[15]:        64        64         0         0         0         0         0         0         0         0         0         0         0         0         0         0 
total dram reads = 2048
min_bank_accesses = 0!
chip skew: 128/128 = 1.00
number of total write accesses:
dram[0]:         0         0         0         0         0         0         0         0         0         0         0         0         0         0         0         0 
dram[1]:         0         0         0         0         0         0         0         0         0         0         0         0         0         0         0         0 
dram[2]:         0         0         0         0         0         0         0         0         0         0         0         0         0         0         0         0 
dram[3]:         0         0         0         0         0         0         0         0         0         0         0         0         0         0         0         0 
dram[4]:         0         0         0         0         0         0         0         0         0         0         0         0         0         0         0         0 
dram[5]:         0         0         0         0         0         0         0         0         0         0         0         0         0         0         0         0 
dram[6]:         0         0         0         0         0         0         0         0         0         0         0         0         0         0         0         0 
dram[7]:         0         0         0         0         0         0         0         0         0         0         0         0         0         0         0         0 
dram[8]:         0         0         0         0         0         0         0         0         0         0         0         0         0         0         0         0 
dram[9]:         0         0         0         0         0         0         0         0         0         0         0         0         0         0         0         0 
dram[10]:         0         0         0         0         0         0         0         0         0         0         0         0         0         0         0         0 
dram[11]:         0         0         0         0         0         0         0         0         0         0         0         0         0         0         0         0 
dram[12]:         0         0         0         0         0         0         0         0         0         0         0         0         0         0         0         0 
dram[13]:         0         0         0         0         0         0         0         0         0         0         0         0         0         0         0         0 
dram[14]:         0         0         0         0         0         0         0         0         0         0         0         0         0         0         0         0 
dram[15]:         0         0         0         0         0         0         0         0         0         0         0         0         0         0         0         0 
total dram writes = 0
min_bank_accesses = 0!
min_chip_accesses = 0!
average mf latency per bank:
dram[0]:        541       541    none      none      none      none      none      none      none      none      none      none      none      none      none      none  
dram[1]:        541       541    none      none      none      none      none      none      none      none      none      none      none      none      none      none  
dram[2]:        542       541    none      none      none      none      none      none      none      none      none      none      none      none      none      none  
dram[3]:        541       541    none      none      none      none      none      none      none      none      none      none      none      none      none      none  
dram[4]:        545       547    none      none      none      none      none      none      none      none      none      none      none      none      none      none  
dram[5]:        544       547    none      none      none      none      none      none      none      none      none      none      none      none      none      none  
dram[6]:        547       546    none      none      none      none      none      none      none      none      none      none      none      none      none      none  
dram[7]:        547       545    none      none      none      none      none      none      none      none      none      none      none      none      none      none  
dram[8]:        543       541    none      none      none      none      none      none      none      none      none      none      none      none      none      none  
dram[9]:        543       541    none      none      none      none      none      none      none      none      none      none      none      none      none      none  
dram[10]:        542       544    none      none      none      none      none      none      none      none      none      none      none      none      none      none  
dram[11]:        542       543    none      none      none      none      none      none      none      none      none      none      none      none      none      none  
dram[12]:        539       539    none      none      none      none      none      none      none      none      none      none      none      none      none      none  
dram[13]:        539       539    none      none      none      none      none      none      none      none      none      none      none      none      none      none  
dram[14]:        538       538    none      none      none      none      none      none      none      none      none      none      none      none      none      none  
dram[15]:        539       538    none      none      none      none      none      none      none      none      none      none      none      none      none      none  
maximum mf latency per bank:
dram[0]:        589       587       259       267         0         0         0         0         0         0         0         0         0         0         0         0
dram[1]:        591       590       267       272         0         0         0         0         0         0         0         0         0         0         0         0
dram[2]:        590       588       259       269         0         0         0         0         0         0         0         0         0         0         0         0
dram[3]:        576       592       269       272         0         0         0         0         0         0         0         0         0         0         0         0
dram[4]:        593       593       267       259         0         0         0         0         0         0         0         0         0         0         0         0
dram[5]:        598       597       264       264         0         0         0         0         0         0         0         0         0         0         0         0
dram[6]:        584       596       261       259         0         0         0         0         0         0         0         0         0         0         0         0
dram[7]:        600       600       264       262         0         0         0         0         0         0         0         0         0         0         0         0
dram[8]:        587       587       259       254         0         0         0         0         0         0         0         0         0         0         0         0
dram[9]:        597       584       250       250         0         0         0         0         0         0         0         0         0         0         0         0
dram[10]:        588       587       257       252         0         0         0         0         0         0         0         0         0         0         0         0
dram[11]:        589       587       250       249         0         0         0         0         0         0         0         0         0         0         0         0
dram[12]:        579       578       261       254         0         0         0         0         0         0         0         0         0         0         0         0
dram[13]:        583       581       269       270         0         0         0         0         0         0         0         0         0         0         0         0
dram[14]:        587       586       259       254         0         0         0         0         0         0         0         0         0         0         0         0
dram[15]:        580       581       267       272         0         0         0         0         0         0         0         0         0         0         0         0
Memory Partition 0: 
Cache L2_bank_000:
MSHR contents

Cache L2_bank_001:
MSHR contents

In Dram Latency Queue (total = 0): 
DRAM[0]: 16 bks, busW=2 BL=16 CL=24, tRRD=12 tCCD=4, tRCD=24 tRAS=55 tRP=24 tRC=78
n_cmd=28420 n_nop=28290 n_act=2 n_pre=0 n_ref_event=0 n_req=128 n_rd=128 n_rd_L2_A=0 n_write=0 n_wr_bk=0 bw_util=0.01802
n_activity=607 dram_eff=0.8435
bk0: 64a 27972i bk1: 64a 27993i bk2: 0a 28418i bk3: 0a 28420i bk4: 0a 28420i bk5: 0a 28420i bk6: 0a 28420i bk7: 0a 28420i bk8: 0a 28420i bk9: 0a 28420i bk10: 0a 28420i bk11: 0a 28420i bk12: 0a 28420i bk13: 0a 28420i bk14: 0a 28420i bk15: 0a 28421i 

------------------------------------------------------------------------

Row_Buffer_Locality = 0.984375
Row_Buffer_Locality_read = 0.984375
Row_Buffer_Locality_write = -nan
Bank_Level_Parallism = 1.903226
Bank_Level_Parallism_Col = 1.882129
Bank_Level_Parallism_Ready = 1.007812
write_to_read_ratio_blp_rw_average = 0.000000
GrpLevelPara = 1.882129 

BW Util details:
bwutil = 0.018015 
total_CMD = 28420 
util_bw = 512 
Wasted_Col = 30 
Wasted_Row = 0 
Idle = 27878 

BW Util Bottlenecks: 
RCDc_limit = 40 
RCDWRc_limit = 0 
WTRc_limit = 0 
RTWc_limit = 0 
CCDLc_limit = 6 
rwq = 0 
CCDLc_limit_alone = 6 
WTRc_limit_alone = 0 
RTWc_limit_alone = 0 

Commands details: 
total_CMD = 28420 
n_nop = 28290 
Read = 128 
Write = 0 
L2_Alloc = 0 
L2_WB = 0 
n_act = 2 
n_pre = 0 
n_ref = 0 
n_req = 128 
total_req = 128 

Dual Bus Interface Util: 
issued_total_row = 2 
issued_total_col = 128 
Row_Bus_Util =  0.000070 
CoL_Bus_Util = 0.004504 
Either_Row_CoL_Bus_Util = 0.004574 
Issued_on_Two_Bus_Simul_Util = 0.000000 
issued_two_Eff = 0.000000 
queue_avg = 0.097713 


dram_util_bins: 0 0 0 0 0 0 0 0 0 0
dram_eff_bins: 0 0 0 0 0 0 0 0 0 0
mrqq: max=15 avg=0.0977129
Memory Partition 1: 
Cache L2_bank_002:
MSHR contents

Cache L2_bank_003:
MSHR contents

In Dram Latency Queue (total = 0): 
DRAM[1]: 16 bks, busW=2 BL=16 CL=24, tRRD=12 tCCD=4, tRCD=24 tRAS=55 tRP=24 tRC=78
n_cmd=28420 n_nop=28290 n_act=2 n_pre=0 n_ref_event=0 n_req=128 n_rd=128 n_rd_L2_A=0 n_write=0 n_wr_bk=0 bw_util=0.01802
n_activity=612 dram_eff=0.8366
bk0: 64a 28004i bk1: 64a 27983i bk2: 0a 28418i bk3: 0a 28420i bk4: 0a 28420i bk5: 0a 28420i bk6: 0a 28420i bk7: 0a 28420i bk8: 0a 28420i bk9: 0a 28420i bk10: 0a 28420i bk11: 0a 28420i bk12: 0a 28420i bk13: 0a 28420i bk14: 0a 28420i bk15: 0a 28421i 

------------------------------------------------------------------------

Row_Buffer_Locality = 0.984375
Row_Buffer_Locality_read = 0.984375
Row_Buffer_Locality_write = -nan
Bank_Level_Parallism = 1.865019
Bank_Level_Parallism_Col = 1.843809
Bank_Level_Parallism_Ready = 1.015625
write_to_read_ratio_blp_rw_average = 0.000000
GrpLevelPara = 1.843809 

BW Util details:
bwutil = 0.018015 
total_CMD = 28420 
util_bw = 512 
Wasted_Col = 31 
Wasted_Row = 0 
Idle = 27877 

BW Util Bottlenecks: 
RCDc_limit = 40 
RCDWRc_limit = 0 
WTRc_limit = 0 
RTWc_limit = 0 
CCDLc_limit = 7 
rwq = 0 
CCDLc_limit_alone = 7 
WTRc_limit_alone = 0 
RTWc_limit_alone = 0 

Commands details: 
total_CMD = 28420 
n_nop = 28290 
Read = 128 
Write = 0 
L2_Alloc = 0 
L2_WB = 0 
n_act = 2 
n_pre = 0 
n_ref = 0 
n_req = 128 
total_req = 128 

Dual Bus Interface Util: 
issued_total_row = 2 
issued_total_col = 128 
Row_Bus_Util =  0.000070 
CoL_Bus_Util = 0.004504 
Either_Row_CoL_Bus_Util = 0.004574 
Issued_on_Two_Bus_Simul_Util = 0.000000 
issued_two_Eff = 0.000000 
queue_avg = 0.093209 


dram_util_bins: 0 0 0 0 0 0 0 0 0 0
dram_eff_bins: 0 0 0 0 0 0 0 0 0 0
mrqq: max=15 avg=0.093209
Memory Partition 2: 
Cache L2_bank_004:
MSHR contents

Cache L2_bank_005:
MSHR contents

In Dram Latency Queue (total = 0): 
DRAM[2]: 16 bks, busW=2 BL=16 CL=24, tRRD=12 tCCD=4, tRCD=24 tRAS=55 tRP=24 tRC=78
n_cmd=28420 n_nop=28290 n_act=2 n_pre=0 n_ref_event=0 n_req=128 n_rd=128 n_rd_L2_A=0 n_write=0 n_wr_bk=0 bw_util=0.01802
n_activity=609 dram_eff=0.8407
bk0: 64a 27979i bk1: 64a 27997i bk2: 0a 28420i bk3: 0a 28420i bk4: 0a 28420i bk5: 0a 28420i bk6: 0a 28420i bk7: 0a 28420i bk8: 0a 28420i bk9: 0a 28420i bk10: 0a 28420i bk11: 0a 28420i bk12: 0a 28420i bk13: 0a 28420i bk14: 0a 28420i bk15: 0a 28420i 

------------------------------------------------------------------------

Row_Buffer_Locality = 0.984375
Row_Buffer_Locality_read = 0.984375
Row_Buffer_Locality_write = -nan
Bank_Level_Parallism = 1.875236
Bank_Level_Parallism_Col = 1.854167
Bank_Level_Parallism_Ready = 1.007812
write_to_read_ratio_blp_rw_average = 0.000000
GrpLevelPara = 1.854167 

BW Util details:
bwutil = 0.018015 
total_CMD = 28420 
util_bw = 512 
Wasted_Col = 32 
Wasted_Row = 0 
Idle = 27876 

BW Util Bottlenecks: 
RCDc_limit = 40 
RCDWRc_limit = 0 
WTRc_limit = 0 
RTWc_limit = 0 
CCDLc_limit = 8 
rwq = 0 
CCDLc_limit_alone = 8 
WTRc_limit_alone = 0 
RTWc_limit_alone = 0 

Commands details: 
total_CMD = 28420 
n_nop = 28290 
Read = 128 
Write = 0 
L2_Alloc = 0 
L2_WB = 0 
n_act = 2 
n_pre = 0 
n_ref = 0 
n_req = 128 
total_req = 128 

Dual Bus Interface Util: 
issued_total_row = 2 
issued_total_col = 128 
Row_Bus_Util =  0.000070 
CoL_Bus_Util = 0.004504 
Either_Row_CoL_Bus_Util = 0.004574 
Issued_on_Two_Bus_Simul_Util = 0.000000 
issued_two_Eff = 0.000000 
queue_avg = 0.116749 


dram_util_bins: 0 0 0 0 0 0 0 0 0 0
dram_eff_bins: 0 0 0 0 0 0 0 0 0 0
mrqq: max=17 avg=0.116749
Memory Partition 3: 
Cache L2_bank_006:
MSHR contents

Cache L2_bank_007:
MSHR contents

In Dram Latency Queue (total = 0): 
DRAM[3]: 16 bks, busW=2 BL=16 CL=24, tRRD=12 tCCD=4, tRCD=24 tRAS=55 tRP=24 tRC=78
n_cmd=28420 n_nop=28290 n_act=2 n_pre=0 n_ref_event=0 n_req=128 n_rd=128 n_rd_L2_A=0 n_write=0 n_wr_bk=0 bw_util=0.01802
n_activity=615 dram_eff=0.8325
bk0: 64a 28005i bk1: 64a 27989i bk2: 0a 28420i bk3: 0a 28420i bk4: 0a 28420i bk5: 0a 28420i bk6: 0a 28420i bk7: 0a 28420i bk8: 0a 28420i bk9: 0a 28420i bk10: 0a 28420i bk11: 0a 28420i bk12: 0a 28420i bk13: 0a 28420i bk14: 0a 28420i bk15: 0a 28420i 

------------------------------------------------------------------------

Row_Buffer_Locality = 0.984375
Row_Buffer_Locality_read = 0.984375
Row_Buffer_Locality_write = -nan
Bank_Level_Parallism = 1.855238
Bank_Level_Parallism_Col = 1.833969
Bank_Level_Parallism_Ready = 1.007812
write_to_read_ratio_blp_rw_average = 0.000000
GrpLevelPara = 1.833969 

BW Util details:
bwutil = 0.018015 
total_CMD = 28420 
util_bw = 512 
Wasted_Col = 32 
Wasted_Row = 0 
Idle = 27876 

BW Util Bottlenecks: 
RCDc_limit = 40 
RCDWRc_limit = 0 
WTRc_limit = 0 
RTWc_limit = 0 
CCDLc_limit = 8 
rwq = 0 
CCDLc_limit_alone = 8 
WTRc_limit_alone = 0 
RTWc_limit_alone = 0 

Commands details: 
total_CMD = 28420 
n_nop = 28290 
Read = 128 
Write = 0 
L2_Alloc = 0 
L2_WB = 0 
n_act = 2 
n_pre = 0 
n_ref = 0 
n_req = 128 
total_req = 128 

Dual Bus Interface Util: 
issued_total_row = 2 
issued_total_col = 128 
Row_Bus_Util =  0.000070 
CoL_Bus_Util = 0.004504 
Either_Row_CoL_Bus_Util = 0.004574 
Issued_on_Two_Bus_Simul_Util = 0.000000 
issued_two_Eff = 0.000000 
queue_avg = 0.114286 


dram_util_bins: 0 0 0 0 0 0 0 0 0 0
dram_eff_bins: 0 0 0 0 0 0 0 0 0 0
mrqq: max=17 avg=0.114286
Memory Partition 4: 
Cache L2_bank_008:
MSHR contents

Cache L2_bank_009:
MSHR contents

In Dram Latency Queue (total = 0): 
DRAM[4]: 16 bks, busW=2 BL=16 CL=24, tRRD=12 tCCD=4, tRCD=24 tRAS=55 tRP=24 tRC=78
n_cmd=28420 n_nop=28290 n_act=2 n_pre=0 n_ref_event=0 n_req=128 n_rd=128 n_rd_L2_A=0 n_write=0 n_wr_bk=0 bw_util=0.01802
n_activity=580 dram_eff=0.8828
bk0: 64a 27966i bk1: 64a 27965i bk2: 0a 28420i bk3: 0a 28420i bk4: 0a 28420i bk5: 0a 28420i bk6: 0a 28420i bk7: 0a 28420i bk8: 0a 28420i bk9: 0a 28420i bk10: 0a 28420i bk11: 0a 28420i bk12: 0a 28420i bk13: 0a 28420i bk14: 0a 28420i bk15: 0a 28420i 

------------------------------------------------------------------------

Row_Buffer_Locality = 0.984375
Row_Buffer_Locality_read = 0.984375
Row_Buffer_Locality_write = -nan
Bank_Level_Parallism = 1.934701
Bank_Level_Parallism_Col = 1.914019
Bank_Level_Parallism_Ready = 1.007812
write_to_read_ratio_blp_rw_average = 0.000000
GrpLevelPara = 1.914019 

BW Util details:
bwutil = 0.018015 
total_CMD = 28420 
util_bw = 512 
Wasted_Col = 32 
Wasted_Row = 0 
Idle = 27876 

BW Util Bottlenecks: 
RCDc_limit = 40 
RCDWRc_limit = 0 
WTRc_limit = 0 
RTWc_limit = 0 
CCDLc_limit = 8 
rwq = 0 
CCDLc_limit_alone = 8 
WTRc_limit_alone = 0 
RTWc_limit_alone = 0 

Commands details: 
total_CMD = 28420 
n_nop = 28290 
Read = 128 
Write = 0 
L2_Alloc = 0 
L2_WB = 0 
n_act = 2 
n_pre = 0 
n_ref = 0 
n_req = 128 
total_req = 128 

Dual Bus Interface Util: 
issued_total_row = 2 
issued_total_col = 128 
Row_Bus_Util =  0.000070 
CoL_Bus_Util = 0.004504 
Either_Row_CoL_Bus_Util = 0.004574 
Issued_on_Two_Bus_Simul_Util = 0.000000 
issued_two_Eff = 0.000000 
queue_avg = 0.160486 


dram_util_bins: 0 0 0 0 0 0 0 0 0 0
dram_eff_bins: 0 0 0 0 0 0 0 0 0 0
mrqq: max=19 avg=0.160486
Memory Partition 5: 
Cache L2_bank_010:
MSHR contents

Cache L2_bank_011:
MSHR contents

In Dram Latency Queue (total = 0): 
DRAM[5]: 16 bks, busW=2 BL=16 CL=24, tRRD=12 tCCD=4, tRCD=24 tRAS=55 tRP=24 tRC=78
n_cmd=28420 n_nop=28290 n_act=2 n_pre=0 n_ref_event=0 n_req=128 n_rd=128 n_rd_L2_A=0 n_write=0 n_wr_bk=0 bw_util=0.01802
n_activity=580 dram_eff=0.8828
bk0: 64a 27967i bk1: 64a 27963i bk2: 0a 28420i bk3: 0a 28420i bk4: 0a 28420i bk5: 0a 28420i bk6: 0a 28420i bk7: 0a 28420i bk8: 0a 28420i bk9: 0a 28420i bk10: 0a 28420i bk11: 0a 28420i bk12: 0a 28420i bk13: 0a 28420i bk14: 0a 28420i bk15: 0a 28420i 

------------------------------------------------------------------------

Row_Buffer_Locality = 0.984375
Row_Buffer_Locality_read = 0.984375
Row_Buffer_Locality_write = -nan
Bank_Level_Parallism = 1.936567
Bank_Level_Parallism_Col = 1.915888
Bank_Level_Parallism_Ready = 1.007812
write_to_read_ratio_blp_rw_average = 0.000000
GrpLevelPara = 1.915888 

BW Util details:
bwutil = 0.018015 
total_CMD = 28420 
util_bw = 512 
Wasted_Col = 32 
[...]
issued_two_Eff = 0.000000 
queue_avg = 0.005328 


dram_util_bins: 0 0 0 0 0 0 0 0 0 0
dram_eff_bins: 0 0 0 0 0 0 0 0 0 0
mrqq: max=14 avg=0.00532832
Memory Partition 10: 
Cache L2_bank_020:
MSHR contents

Cache L2_bank_021:
MSHR contents

In Dram Latency Queue (total = 0): 
DRAM[10]: 16 bks, busW=2 BL=16 CL=24, tRRD=12 tCCD=4, tRCD=24 tRAS=55 tRP=24 tRC=78
n_cmd=444981 n_nop=444851 n_act=2 n_pre=0 n_ref_event=0 n_req=128 n_rd=128 n_rd_L2_A=0 n_write=0 n_wr_bk=0 bw_util=0.001151
n_activity=615 dram_eff=0.8325
bk0: 64a 444589i bk1: 64a 444592i bk2: 0a 444981i bk3: 0a 444981i bk4: 0a 444981i bk5: 0a 444981i bk6: 0a 444981i bk7: 0a 444981i bk8: 0a 444981i bk9: 0a 444981i bk10: 0a 444981i bk11: 0a 444981i bk12: 0a 444981i bk13: 0a 444981i bk14: 0a 444981i bk15: 0a 444981i 

------------------------------------------------------------------------

Row_Buffer_Locality = 0.984375
Row_Buffer_Locality_read = 0.984375
Row_Buffer_Locality_write = -nan
Bank_Level_Parallism = 1.765049
Bank_Level_Parallism_Col = 1.743191
Bank_Level_Parallism_Ready = 1.007812
write_to_read_ratio_blp_rw_average = 0.000000
GrpLevelPara = 1.743191 

BW Util details:
bwutil = 0.001151 
total_CMD = 444981 
util_bw = 512 
Wasted_Col = 33 
Wasted_Row = 0 
Idle = 444436 

BW Util Bottlenecks: 
RCDc_limit = 40 
RCDWRc_limit = 0 
WTRc_limit = 0 
RTWc_limit = 0 
CCDLc_limit = 9 
rwq = 0 
CCDLc_limit_alone = 9 
WTRc_limit_alone = 0 
RTWc_limit_alone = 0 

Commands details: 
total_CMD = 444981 
n_nop = 444851 
Read = 128 
Write = 0 
L2_Alloc = 0 
L2_WB = 0 
n_act = 2 
n_pre = 0 
n_ref = 0 
n_req = 128 
total_req = 128 

Dual Bus Interface Util: 
issued_total_row = 2 
issued_total_col = 128 
Row_Bus_Util =  0.000004 
CoL_Bus_Util = 0.000288 
Either_Row_CoL_Bus_Util = 0.000292 
Issued_on_Two_Bus_Simul_Util = 0.000000 
issued_two_Eff = 0.000000 
queue_avg = 0.005733 


dram_util_bins: 0 0 0 0 0 0 0 0 0 0
dram_eff_bins: 0 0 0 0 0 0 0 0 0 0
mrqq: max=16 avg=0.00573283
Memory Partition 11: 
Cache L2_bank_022:
MSHR contents

Cache L2_bank_023:
MSHR contents

In Dram Latency Queue (total = 0): 
DRAM[11]: 16 bks, busW=2 BL=16 CL=24, tRRD=12 tCCD=4, tRCD=24 tRAS=55 tRP=24 tRC=78
n_cmd=444981 n_nop=444851 n_act=2 n_pre=0 n_ref_event=0 n_req=128 n_rd=128 n_rd_L2_A=0 n_write=0 n_wr_bk=0 bw_util=0.001151
n_activity=602 dram_eff=0.8505
bk0: 64a 444560i bk1: 64a 444560i bk2: 0a 444981i bk3: 0a 444981i bk4: 0a 444981i bk5: 0a 444981i bk6: 0a 444981i bk7: 0a 444981i bk8: 0a 444981i bk9: 0a 444981i bk10: 0a 444981i bk11: 0a 444981i bk12: 0a 444981i bk13: 0a 444981i bk14: 0a 444981i bk15: 0a 444981i 

------------------------------------------------------------------------

Row_Buffer_Locality = 0.984375
Row_Buffer_Locality_read = 0.984375
Row_Buffer_Locality_write = -nan
Bank_Level_Parallism = 1.844106
Bank_Level_Parallism_Col = 1.822857
Bank_Level_Parallism_Ready = 1.007812
write_to_read_ratio_blp_rw_average = 0.000000
GrpLevelPara = 1.822857 

BW Util details:
bwutil = 0.001151 
total_CMD = 444981 
util_bw = 512 
Wasted_Col = 33 
Wasted_Row = 0 
Idle = 444436 

BW Util Bottlenecks: 
RCDc_limit = 40 
RCDWRc_limit = 0 
WTRc_limit = 0 
RTWc_limit = 0 
CCDLc_limit = 9 
rwq = 0 
CCDLc_limit_alone = 9 
WTRc_limit_alone = 0 
RTWc_limit_alone = 0 

Commands details: 
total_CMD = 444981 
n_nop = 444851 
Read = 128 
Write = 0 
L2_Alloc = 0 
L2_WB = 0 
n_act = 2 
n_pre = 0 
n_ref = 0 
n_req = 128 
total_req = 128 

Dual Bus Interface Util: 
issued_total_row = 2 
issued_total_col = 128 
Row_Bus_Util =  0.000004 
CoL_Bus_Util = 0.000288 
Either_Row_CoL_Bus_Util = 0.000292 
Issued_on_Two_Bus_Simul_Util = 0.000000 
issued_two_Eff = 0.000000 
queue_avg = 0.005960 


dram_util_bins: 0 0 0 0 0 0 0 0 0 0
dram_eff_bins: 0 0 0 0 0 0 0 0 0 0
mrqq: max=16 avg=0.00595981
Memory Partition 12: 
Cache L2_bank_024:
MSHR contents

Cache L2_bank_025:
MSHR contents

In Dram Latency Queue (total = 0): 
DRAM[12]: 16 bks, busW=2 BL=16 CL=24, tRRD=12 tCCD=4, tRCD=24 tRAS=55 tRP=24 tRC=78
n_cmd=444981 n_nop=444851 n_act=2 n_pre=0 n_ref_event=0 n_req=128 n_rd=128 n_rd_L2_A=0 n_write=0 n_wr_bk=0 bw_util=0.001151
n_activity=606 dram_eff=0.8449
bk0: 64a 444551i bk1: 64a 444564i bk2: 0a 444981i bk3: 0a 444981i bk4: 0a 444981i bk5: 0a 444981i bk6: 0a 444981i bk7: 0a 444981i bk8: 0a 444981i bk9: 0a 444981i bk10: 0a 444981i bk11: 0a 444981i bk12: 0a 444981i bk13: 0a 444981i bk14: 0a 444981i bk15: 0a 444981i 

------------------------------------------------------------------------

Row_Buffer_Locality = 0.984375
Row_Buffer_Locality_read = 0.984375
Row_Buffer_Locality_write = -nan
Bank_Level_Parallism = 1.850095
Bank_Level_Parallism_Col = 1.828897
Bank_Level_Parallism_Ready = 1.015625
write_to_read_ratio_blp_rw_average = 0.000000
GrpLevelPara = 1.828897 

BW Util details:
bwutil = 0.001151 
total_CMD = 444981 
util_bw = 512 
Wasted_Col = 33 
Wasted_Row = 0 
Idle = 444436 

BW Util Bottlenecks: 
RCDc_limit = 40 
RCDWRc_limit = 0 
WTRc_limit = 0 
RTWc_limit = 0 
CCDLc_limit = 9 
rwq = 0 
CCDLc_limit_alone = 9 
WTRc_limit_alone = 0 
RTWc_limit_alone = 0 

Commands details: 
total_CMD = 444981 
n_nop = 444851 
Read = 128 
Write = 0 
L2_Alloc = 0 
L2_WB = 0 
n_act = 2 
n_pre = 0 
n_ref = 0 
n_req = 128 
total_req = 128 

Dual Bus Interface Util: 
issued_total_row = 2 
issued_total_col = 128 
Row_Bus_Util =  0.000004 
CoL_Bus_Util = 0.000288 
Either_Row_CoL_Bus_Util = 0.000292 
Issued_on_Two_Bus_Simul_Util = 0.000000 
issued_two_Eff = 0.000000 
queue_avg = 0.005184 


dram_util_bins: 0 0 0 0 0 0 0 0 0 0
dram_eff_bins: 0 0 0 0 0 0 0 0 0 0
mrqq: max=14 avg=0.00518449
Memory Partition 13: 
Cache L2_bank_026:
MSHR contents

Cache L2_bank_027:
MSHR contents

In Dram Latency Queue (total = 0): 
DRAM[13]: 16 bks, busW=2 BL=16 CL=24, tRRD=12 tCCD=4, tRCD=24 tRAS=55 tRP=24 tRC=78
n_cmd=444981 n_nop=444851 n_act=2 n_pre=0 n_ref_event=0 n_req=128 n_rd=128 n_rd_L2_A=0 n_write=0 n_wr_bk=0 bw_util=0.001151
n_activity=622 dram_eff=0.8232
bk0: 64a 444570i bk1: 64a 444562i bk2: 0a 444981i bk3: 0a 444981i bk4: 0a 444981i bk5: 0a 444981i bk6: 0a 444981i bk7: 0a 444981i bk8: 0a 444981i bk9: 0a 444981i bk10: 0a 444981i bk11: 0a 444981i bk12: 0a 444981i bk13: 0a 444981i bk14: 0a 444981i bk15: 0a 444981i 

------------------------------------------------------------------------

Row_Buffer_Locality = 0.984375
Row_Buffer_Locality_read = 0.984375
Row_Buffer_Locality_write = -nan
Bank_Level_Parallism = 1.828244
Bank_Level_Parallism_Col = 1.806883
Bank_Level_Parallism_Ready = 1.015625
write_to_read_ratio_blp_rw_average = 0.000000
GrpLevelPara = 1.806883 

BW Util details:
bwutil = 0.001151 
total_CMD = 444981 
util_bw = 512 
Wasted_Col = 33 
Wasted_Row = 0 
Idle = 444436 

BW Util Bottlenecks: 
RCDc_limit = 40 
RCDWRc_limit = 0 
WTRc_limit = 0 
RTWc_limit = 0 
CCDLc_limit = 9 
rwq = 0 
CCDLc_limit_alone = 9 
WTRc_limit_alone = 0 
RTWc_limit_alone = 0 

Commands details: 
total_CMD = 444981 
n_nop = 444851 
Read = 128 
Write = 0 
L2_Alloc = 0 
L2_WB = 0 
n_act = 2 
n_pre = 0 
n_ref = 0 
n_req = 128 
total_req = 128 

Dual Bus Interface Util: 
issued_total_row = 2 
issued_total_col = 128 
Row_Bus_Util =  0.000004 
CoL_Bus_Util = 0.000288 
Either_Row_CoL_Bus_Util = 0.000292 
Issued_on_Two_Bus_Simul_Util = 0.000000 
issued_two_Eff = 0.000000 
queue_avg = 0.004935 


dram_util_bins: 0 0 0 0 0 0 0 0 0 0
dram_eff_bins: 0 0 0 0 0 0 0 0 0 0
mrqq: max=14 avg=0.00493504
Memory Partition 14: 
Cache L2_bank_028:
MSHR contents

Cache L2_bank_029:
MSHR contents

In Dram Latency Queue (total = 0): 
DRAM[14]: 16 bks, busW=2 BL=16 CL=24, tRRD=12 tCCD=4, tRCD=24 tRAS=55 tRP=24 tRC=78
n_cmd=444981 n_nop=444851 n_act=2 n_pre=0 n_ref_event=0 n_req=128 n_rd=128 n_rd_L2_A=0 n_write=0 n_wr_bk=0 bw_util=0.001151
n_activity=607 dram_eff=0.8435
bk0: 64a 444559i bk1: 64a 444572i bk2: 0a 444979i bk3: 0a 444981i bk4: 0a 444981i bk5: 0a 444981i bk6: 0a 444981i bk7: 0a 444981i bk8: 0a 444981i bk9: 0a 444981i bk10: 0a 444981i bk11: 0a 444981i bk12: 0a 444981i bk13: 0a 444981i bk14: 0a 444981i bk15: 0a 444982i 

------------------------------------------------------------------------

Row_Buffer_Locality = 0.984375
Row_Buffer_Locality_read = 0.984375
Row_Buffer_Locality_write = -nan
Bank_Level_Parallism = 1.837165
Bank_Level_Parallism_Col = 1.815739
Bank_Level_Parallism_Ready = 1.007812
write_to_read_ratio_blp_rw_average = 0.000000
GrpLevelPara = 1.815739 

BW Util details:
bwutil = 0.001151 
total_CMD = 444981 
util_bw = 512 
Wasted_Col = 30 
Wasted_Row = 0 
Idle = 444439 

BW Util Bottlenecks: 
RCDc_limit = 40 
RCDWRc_limit = 0 
WTRc_limit = 0 
RTWc_limit = 0 
CCDLc_limit = 6 
rwq = 0 
CCDLc_limit_alone = 6 
WTRc_limit_alone = 0 
RTWc_limit_alone = 0 

Commands details: 
total_CMD = 444981 
n_nop = 444851 
Read = 128 
Write = 0 
L2_Alloc = 0 
L2_WB = 0 
n_act = 2 
n_pre = 0 
n_ref = 0 
n_req = 128 
total_req = 128 

Dual Bus Interface Util: 
issued_total_row = 2 
issued_total_col = 128 
Row_Bus_Util =  0.000004 
CoL_Bus_Util = 0.000288 
Either_Row_CoL_Bus_Util = 0.000292 
Issued_on_Two_Bus_Simul_Util = 0.000000 
issued_two_Eff = 0.000000 
queue_avg = 0.004942 


dram_util_bins: 0 0 0 0 0 0 0 0 0 0
dram_eff_bins: 0 0 0 0 0 0 0 0 0 0
mrqq: max=14 avg=0.00494178
Memory Partition 15: 
Cache L2_bank_030:
MSHR contents

Cache L2_bank_031:
MSHR contents

In Dram Latency Queue (total = 0): 
DRAM[15]: 16 bks, busW=2 BL=16 CL=24, tRRD=12 tCCD=4, tRCD=24 tRAS=55 tRP=24 tRC=78
n_cmd=444981 n_nop=444851 n_act=2 n_pre=0 n_ref_event=0 n_req=128 n_rd=128 n_rd_L2_A=0 n_write=0 n_wr_bk=0 bw_util=0.001151
n_activity=623 dram_eff=0.8218
bk0: 64a 444537i bk1: 64a 444574i bk2: 0a 444979i bk3: 0a 444981i bk4: 0a 444981i bk5: 0a 444981i bk6: 0a 444981i bk7: 0a 444981i bk8: 0a 444981i bk9: 0a 444981i bk10: 0a 444981i bk11: 0a 444981i bk12: 0a 444981i bk13: 0a 444981i bk14: 0a 444981i bk15: 0a 444982i 

------------------------------------------------------------------------

Row_Buffer_Locality = 0.984375
Row_Buffer_Locality_read = 0.984375
Row_Buffer_Locality_write = -nan
Bank_Level_Parallism = 1.868321
Bank_Level_Parallism_Col = 1.847036
Bank_Level_Parallism_Ready = 1.007812
write_to_read_ratio_blp_rw_average = 0.000000
GrpLevelPara = 1.847036 

BW Util details:
bwutil = 0.001151 
total_CMD = 444981 
util_bw = 512 
Wasted_Col = 30 
Wasted_Row = 0 
Idle = 444439 

BW Util Bottlenecks: 
RCDc_limit = 40 
RCDWRc_limit = 0 
WTRc_limit = 0 
RTWc_limit = 0 
CCDLc_limit = 6 
rwq = 0 
CCDLc_limit_alone = 6 
WTRc_limit_alone = 0 
RTWc_limit_alone = 0 

Commands details: 
total_CMD = 444981 
n_nop = 444851 
Read = 128 
Write = 0 
L2_Alloc = 0 
L2_WB = 0 
n_act = 2 
n_pre = 0 
n_ref = 0 
n_req = 128 
total_req = 128 

Dual Bus Interface Util: 
issued_total_row = 2 
issued_total_col = 128 
Row_Bus_Util =  0.000004 
CoL_Bus_Util = 0.000288 
Either_Row_CoL_Bus_Util = 0.000292 
Issued_on_Two_Bus_Simul_Util = 0.000000 
issued_two_Eff = 0.000000 
queue_avg = 0.005072 


dram_util_bins: 0 0 0 0 0 0 0 0 0 0
dram_eff_bins: 0 0 0 0 0 0 0 0 0 0
mrqq: max=14 avg=0.00507213

========= L2 cache stats =========
L2_cache_bank[0]: Access = 2432, Miss = 128, Miss_rate = 0.053, Pending_hits = 0, Reservation_fails = 0
L2_cache_bank[1]: Access = 2432, Miss = 128, Miss_rate = 0.053, Pending_hits = 0, Reservation_fails = 0
L2_cache_bank[2]: Access = 2432, Miss = 128, Miss_rate = 0.053, Pending_hits = 0, Reservation_fails = 0
L2_cache_bank[3]: Access = 2432, Miss = 128, Miss_rate = 0.053, Pending_hits = 0, Reservation_fails = 0
L2_cache_bank[4]: Access = 2432, Miss = 128, Miss_rate = 0.053, Pending_hits = 0, Reservation_fails = 0
L2_cache_bank[5]: Access = 2432, Miss = 128, Miss_rate = 0.053, Pending_hits = 0, Reservation_fails = 0
L2_cache_bank[6]: Access = 2432, Miss = 128, Miss_rate = 0.053, Pending_hits = 0, Reservation_fails = 0
L2_cache_bank[7]: Access = 2432, Miss = 128, Miss_rate = 0.053, Pending_hits = 0, Reservation_fails = 0
L2_cache_bank[8]: Access = 2432, Miss = 128, Miss_rate = 0.053, Pending_hits = 0, Reservation_fails = 0
L2_cache_bank[9]: Access = 2432, Miss = 128, Miss_rate = 0.053, Pending_hits = 0, Reservation_fails = 0
L2_cache_bank[10]: Access = 2432, Miss = 128, Miss_rate = 0.053, Pending_hits = 0, Reservation_fails = 0
L2_cache_bank[11]: Access = 2432, Miss = 128, Miss_rate = 0.053, Pending_hits = 0, Reservation_fails = 0
L2_cache_bank[12]: Access = 2432, Miss = 128, Miss_rate = 0.053, Pending_hits = 0, Reservation_fails = 0
L2_cache_bank[13]: Access = 2432, Miss = 128, Miss_rate = 0.053, Pending_hits = 0, Reservation_fails = 0
L2_cache_bank[14]: Access = 2432, Miss = 128, Miss_rate = 0.053, Pending_hits = 0, Reservation_fails = 0
L2_cache_bank[15]: Access = 2432, Miss = 128, Miss_rate = 0.053, Pending_hits = 0, Reservation_fails = 0
L2_cache_bank[16]: Access = 2432, Miss = 128, Miss_rate = 0.053, Pending_hits = 0, Reservation_fails = 0
L2_cache_bank[17]: Access = 2432, Miss = 128, Miss_rate = 0.053, Pending_hits = 0, Reservation_fails = 0
L2_cache_bank[18]: Access = 2432, Miss = 128, Miss_rate = 0.053, Pending_hits = 0, Reservation_fails = 0
L2_cache_bank[19]: Access = 2432, Miss = 128, Miss_rate = 0.053, Pending_hits = 0, Reservation_fails = 0
L2_cache_bank[20]: Access = 2432, Miss = 128, Miss_rate = 0.053, Pending_hits = 0, Reservation_fails = 0
L2_cache_bank[21]: Access = 2432, Miss = 128, Miss_rate = 0.053, Pending_hits = 0, Reservation_fails = 0
L2_cache_bank[22]: Access = 2432, Miss = 128, Miss_rate = 0.053, Pending_hits = 0, Reservation_fails = 0
L2_cache_bank[23]: Access = 2432, Miss = 128, Miss_rate = 0.053, Pending_hits = 0, Reservation_fails = 0
L2_cache_bank[24]: Access = 2432, Miss = 128, Miss_rate = 0.053, Pending_hits = 0, Reservation_fails = 0
L2_cache_bank[25]: Access = 2432, Miss = 128, Miss_rate = 0.053, Pending_hits = 0, Reservation_fails = 0
L2_cache_bank[26]: Access = 2432, Miss = 128, Miss_rate = 0.053, Pending_hits = 0, Reservation_fails = 0
L2_cache_bank[27]: Access = 2432, Miss = 128, Miss_rate = 0.053, Pending_hits = 0, Reservation_fails = 0
L2_cache_bank[28]: Access = 2432, Miss = 128, Miss_rate = 0.053, Pending_hits = 0, Reservation_fails = 0
L2_cache_bank[29]: Access = 2432, Miss = 128, Miss_rate = 0.053, Pending_hits = 0, Reservation_fails = 0
L2_cache_bank[30]: Access = 2432, Miss = 128, Miss_rate = 0.053, Pending_hits = 0, Reservation_fails = 0
L2_cache_bank[31]: Access = 2432, Miss = 128, Miss_rate = 0.053, Pending_hits = 0, Reservation_fails = 0
L2_total_cache_accesses = 77824
L2_total_cache_misses = 4096
L2_total_cache_miss_rate = 0.0526
L2_total_cache_pending_hits = 0
L2_total_cache_reservation_fails = 0
L2_total_cache_breakdown:
	L2_cache_stats_breakdown[GLOBAL_ACC_R][HIT] = 30720
	L2_cache_stats_breakdown[GLOBAL_ACC_R][HIT_RESERVED] = 0
	L2_cache_stats_breakdown[GLOBAL_ACC_R][MISS] = 512
	L2_cache_stats_breakdown[GLOBAL_ACC_R][RESERVATION_FAIL] = 0
	L2_cache_stats_breakdown[GLOBAL_ACC_R][SECTOR_MISS] = 1536
	L2_cache_stats_breakdown[GLOBAL_ACC_R][MSHR_HIT] = 0
	L2_cache_stats_breakdown[LOCAL_ACC_R][HIT] = 0
	L2_cache_stats_breakdown[LOCAL_ACC_R][HIT_RESERVED] = 0
	L2_cache_stats_breakdown[LOCAL_ACC_R][MISS] = 0
	L2_cache_stats_breakdown[LOCAL_ACC_R][RESERVATION_FAIL] = 0
	L2_cache_stats_breakdown[LOCAL_ACC_R][SECTOR_MISS] = 0
	L2_cache_stats_breakdown[LOCAL_ACC_R][MSHR_HIT] = 0
	L2_cache_stats_breakdown[CONST_ACC_R][HIT] = 0
	L2_cache_stats_breakdown[CONST_ACC_R][HIT_RESERVED] = 0
	L2_cache_stats_breakdown[CONST_ACC_R][MISS] = 0
	L2_cache_stats_breakdown[CONST_ACC_R][RESERVATION_FAIL] = 0
	L2_cache_stats_breakdown[CONST_ACC_R][SECTOR_MISS] = 0
	L2_cache_stats_breakdown[CONST_ACC_R][MSHR_HIT] = 0
	L2_cache_stats_breakdown[TEXTURE_ACC_R][HIT] = 0
	L2_cache_stats_breakdown[TEXTURE_ACC_R][HIT_RESERVED] = 0
	L2_cache_stats_breakdown[TEXTURE_ACC_R][MISS] = 0
	L2_cache_stats_breakdown[TEXTURE_ACC_R][RESERVATION_FAIL] = 0
	L2_cache_stats_breakdown[TEXTURE_ACC_R][SECTOR_MISS] = 0
	L2_cache_stats_breakdown[TEXTURE_ACC_R][MSHR_HIT] = 0
	L2_cache_stats_breakdown[GLOBAL_ACC_W][HIT] = 43008
	L2_cache_stats_breakdown[GLOBAL_ACC_W][HIT_RESERVED] = 0
	L2_cache_stats_breakdown[GLOBAL_ACC_W][MISS] = 512
	L2_cache_stats_breakdown[GLOBAL_ACC_W][RESERVATION_FAIL] = 0
	L2_cache_stats_breakdown[GLOBAL_ACC_W][SECTOR_MISS] = 1536
	L2_cache_stats_breakdown[GLOBAL_ACC_W][MSHR_HIT] = 0
	L2_cache_stats_breakdown[LOCAL_ACC_W][HIT] = 0
	L2_cache_stats_breakdown[LOCAL_ACC_W][HIT_RESERVED] = 0
	L2_cache_stats_breakdown[LOCAL_ACC_W][MISS] = 0
	L2_cache_stats_breakdown[LOCAL_ACC_W][RESERVATION_FAIL] = 0
	L2_cache_stats_breakdown[LOCAL_ACC_W][SECTOR_MISS] = 0
	L2_cache_stats_breakdown[LOCAL_ACC_W][MSHR_HIT] = 0
	L2_cache_stats_breakdown[L1_WRBK_ACC][HIT] = 0
	L2_cache_stats_breakdown[L1_WRBK_ACC][HIT_RESERVED] = 0
	L2_cache_stats_breakdown[L1_WRBK_ACC][MISS] = 0
	L2_cache_stats_breakdown[L1_WRBK_ACC][RESERVATION_FAIL] = 0
	L2_cache_stats_breakdown[L1_WRBK_ACC][SECTOR_MISS] = 0
	L2_cache_stats_breakdown[L1_WRBK_ACC][MSHR_HIT] = 0
	L2_cache_stats_breakdown[L2_WRBK_ACC][HIT] = 0
	L2_cache_stats_breakdown[L2_WRBK_ACC][HIT_RESERVED] = 0
	L2_cache_stats_breakdown[L2_WRBK_ACC][MISS] = 0
	L2_cache_stats_breakdown[L2_WRBK_ACC][RESERVATION_FAIL] = 0
	L2_cache_stats_breakdown[L2_WRBK_ACC][SECTOR_MISS] = 0
	L2_cache_stats_breakdown[L2_WRBK_ACC][MSHR_HIT] = 0
	L2_cache_stats_breakdown[INST_ACC_R][HIT] = 0
	L2_cache_stats_breakdown[INST_ACC_R][HIT_RESERVED] = 0
	L2_cache_stats_breakdown[INST_ACC_R][MISS] = 0
	L2_cache_stats_breakdown[INST_ACC_R][RESERVATION_FAIL] = 0
	L2_cache_stats_breakdown[INST_ACC_R][SECTOR_MISS] = 0
	L2_cache_stats_breakdown[INST_ACC_R][MSHR_HIT] = 0
	L2_cache_stats_breakdown[L1_WR_ALLOC_R][HIT] = 0
	L2_cache_stats_breakdown[L1_WR_ALLOC_R][HIT_RESERVED] = 0
	L2_cache_stats_breakdown[L1_WR_ALLOC_R][MISS] = 0
	L2_cache_stats_breakdown[L1_WR_ALLOC_R][RESERVATION_FAIL] = 0
	L2_cache_stats_breakdown[L1_WR_ALLOC_R][SECTOR_MISS] = 0
	L2_cache_stats_breakdown[L1_WR_ALLOC_R][MSHR_HIT] = 0
	L2_cache_stats_breakdown[L2_WR_ALLOC_R][HIT] = 0
	L2_cache_stats_breakdown[L2_WR_ALLOC_R][HIT_RESERVED] = 0
	L2_cache_stats_breakdown[L2_WR_ALLOC_R][MISS] = 0
	L2_cache_stats_breakdown[L2_WR_ALLOC_R][RESERVATION_FAIL] = 0
	L2_cache_stats_breakdown[L2_WR_ALLOC_R][SECTOR_MISS] = 0
	L2_cache_stats_breakdown[L2_WR_ALLOC_R][MSHR_HIT] = 0
	L2_cache_stats_breakdown[GLOBAL_ACC_R][TOTAL_ACCESS] = 32768
	L2_cache_stats_breakdown[GLOBAL_ACC_W][TOTAL_ACCESS] = 45056
L2_total_cache_reservation_fail_breakdown:
L2_cache_data_port_util = 0.025
L2_cache_fill_port_util = 0.001

icnt_total_pkts_mem_to_simt=77824
icnt_total_pkts_simt_to_mem=77824
LD_mem_lat_dist  0 0 0 0 0 0 0 0 0 0 0 0 0 0 0 0 0 0 0 0 0 0 0 0 0 0 0
ST_mem_lat_dist  0 0 0 0 0 0 0 0 0 0 0 0 0 0 0 0 0 0 0 0 0 0 0 0 0 0 0
----------------------------Interconnect-DETAILS--------------------------------
Req_Network_injected_packets_num = 77824
Req_Network_cycles = 93447
Req_Network_injected_packets_per_cycle =       0.8328 
Req_Network_conflicts_per_cycle =       0.4699
Req_Network_conflicts_per_cycle_util =       8.5074
Req_Bank_Level_Parallism =      15.0763
Req_Network_in_buffer_full_per_cycle =       0.0000
Req_Network_in_buffer_avg_util =       0.2938
Req_Network_out_buffer_full_per_cycle =       0.0000
Req_Network_out_buffer_avg_util =       0.0260

Reply_Network_injected_packets_num = 77824
Reply_Network_cycles = 93447
Reply_Network_injected_packets_per_cycle =        0.8328
Reply_Network_conflicts_per_cycle =        0.5530
Reply_Network_conflicts_per_cycle_util =       8.9672
Reply_Bank_Level_Parallism =      13.5041
Reply_Network_in_buffer_full_per_cycle =       0.0000
Reply_Network_in_buffer_avg_util =       0.1313
Reply_Network_out_buffer_full_per_cycle =       0.0000
Reply_Network_out_buffer_avg_util =       0.0174
----------------------------END-of-Interconnect-DETAILS-------------------------


gpgpu_simulation_time = 0 days, 0 hrs, 0 min, 38 sec (38 sec)
gpgpu_simulation_rate = 161347 (inst/sec)
gpgpu_simulation_rate = 2459 (cycle/sec)
gpgpu_silicon_slowdown = 298901x
GPGPU-Sim: *** simulation thread exiting ***
GPGPU-Sim: *** exit detected ***
