GPGPU-Sim version 4.2.0 (build gpgpu-sim_git-commit-13c67115070dc2f0876254a790d0238073ca364a-modified_590.0) configured with AccelWattch.

----------------------------------------------------------------------------
INFO - If you only care about PTX execution, ignore this message. GPGPU-Sim supports PTX execution in modern CUDA.
If you want to run PTXPLUS (sm_1x SASS) with a modern card configuration - set the envronment variable
$PTXAS_CUDA_INSTALL_PATH to point a CUDA version compabible with your card configurations (i.e. 8+ for PASCAL, 9+ for VOLTA etc..)
For example: "export $PTXAS_CUDA_INSTALL_PATH=/usr/local/cuda-9.1"

The following text describes why:
If you are using PTXPLUS, only sm_1x is supported and it requires that the app and simulator binaries are compiled in CUDA 4.2 or less.
The simulator requires it since CUDA headers desribe struct sizes in the exec which change from gen to gen.
The apps require 4.2 because new versions of CUDA tools have dropped parsing support for generating sm_1x
When running using modern config (i.e. volta) and PTXPLUS with CUDA 4.2, the $PTXAS_CUDA_INSTALL_PATH env variable is required to get proper register usage
(and hence occupancy) using a version of CUDA that knows the register usage on the real card.

----------------------------------------------------------------------------
setup_environment succeeded


        *** GPGPU-Sim Simulator Version 4.2.0  [build gpgpu-sim_git-commit-13c67115070dc2f0876254a790d0238073ca364a_modified_0.0] ***


GPGPU-Sim PTX: simulation mode 0 (can change with PTX_SIM_MODE_FUNC environment variable:
               1=functional simulation only, 0=detailed performance simulator)
GPGPU-Sim PTX: overriding embedded ptx with ptx file (PTX_SIM_USE_PTX_FILE is set)
GPGPU-Sim: Configuration options:

-save_embedded_ptx                      0 # saves ptx files embedded in binary as <n>.ptx
-keep                                   0 # keep intermediate files created by GPGPU-Sim when interfacing with external programs
-gpgpu_ptx_save_converted_ptxplus                    0 # Saved converted ptxplus to a file
-gpgpu_occupancy_sm_number                   60 # The SM number to pass to ptxas when getting register usage for computing GPU occupancy. This parameter is required in the config.
-ptx_opcode_latency_int         4,13,4,5,145 # Opcode latencies for integers <ADD,MAX,MUL,MAD,DIV,SHFL>Default 1,1,19,25,145,32
-ptx_opcode_latency_fp          4,13,4,5,39 # Opcode latencies for single precision floating points <ADD,MAX,MUL,MAD,DIV>Default 1,1,1,1,30
-ptx_opcode_latency_dp         8,19,8,8,330 # Opcode latencies for double precision floating points <ADD,MAX,MUL,MAD,DIV>Default 8,8,8,8,335
-ptx_opcode_latency_sfu                    8 # Opcode latencies for SFU instructionsDefault 8
-ptx_opcode_latency_tesnor                   64 # Opcode latencies for Tensor instructionsDefault 64
-ptx_opcode_initiation_int            1,2,2,2,8 # Opcode initiation intervals for integers <ADD,MAX,MUL,MAD,DIV,SHFL>Default 1,1,4,4,32,4
-ptx_opcode_initiation_fp            1,2,1,1,4 # Opcode initiation intervals for single precision floating points <ADD,MAX,MUL,MAD,DIV>Default 1,1,1,1,5
-ptx_opcode_initiation_dp          1,2,1,1,130 # Opcode initiation intervals for double precision floating points <ADD,MAX,MUL,MAD,DIV>Default 8,8,8,8,130
-ptx_opcode_initiation_sfu                    8 # Opcode initiation intervals for sfu instructionsDefault 8
-ptx_opcode_initiation_tensor                   64 # Opcode initiation intervals for tensor instructionsDefault 64
-cdp_latency         7200,8000,100,12000,1600 # CDP API latency <cudaStreamCreateWithFlags, cudaGetParameterBufferV2_init_perWarp, cudaGetParameterBufferV2_perKernel, cudaLaunchDeviceV2_init_perWarp, cudaLaunchDevicV2_perKernel>Default 7200,8000,100,12000,1600
-network_mode                           1 # Interconnection network mode
-inter_config_file   config_fermi_islip.icnt # Interconnection network config file
-icnt_in_buffer_limit                   64 # in_buffer_limit
-icnt_out_buffer_limit                   64 # out_buffer_limit
-icnt_subnets                           2 # subnets
-icnt_arbiter_algo                      1 # arbiter_algo
-icnt_verbose                           0 # inct_verbose
-icnt_grant_cycles                      1 # grant_cycles
-gpgpu_ptx_use_cuobjdump                    1 # Use cuobjdump to extract ptx and sass from binaries
-gpgpu_experimental_lib_support                    0 # Try to extract code from cuda libraries [Broken because of unknown cudaGetExportTable]
-checkpoint_option                      0 #  checkpointing flag (0 = no checkpoint)
-checkpoint_kernel                      1 #  checkpointing during execution of which kernel (1- 1st kernel)
-checkpoint_CTA                         0 #  checkpointing after # of CTA (< less than total CTA)
-resume_option                          0 #  resume flag (0 = no resume)
-resume_kernel                          0 #  Resume from which kernel (1= 1st kernel)
-resume_CTA                             0 #  resume from which CTA 
-checkpoint_CTA_t                       0 #  resume from which CTA 
-checkpoint_insn_Y                      0 #  resume from which CTA 
-gpgpu_ptx_convert_to_ptxplus                    0 # Convert SASS (native ISA) to ptxplus and run ptxplus
-gpgpu_ptx_force_max_capability                   60 # Force maximum compute capability
-gpgpu_ptx_inst_debug_to_file                    0 # Dump executed instructions' debug information to file
-gpgpu_ptx_inst_debug_file       inst_debug.txt # Executed instructions' debug output file
-gpgpu_ptx_inst_debug_thread_uid                    1 # Thread UID for executed instructions' debug output
-gpgpu_simd_model                       1 # 1 = post-dominator
-gpgpu_shader_core_pipeline              2048:32 # shader core pipeline config, i.e., {<nthread>:<warpsize>}
-gpgpu_tex_cache:l1  N:16:128:24,L:R:m:N:L,F:128:4,128:2 # per-shader L1 texture cache  (READ-ONLY) config  {<nsets>:<bsize>:<assoc>,<rep>:<wr>:<alloc>:<wr_alloc>,<mshr>:<N>:<merge>,<mq>:<rf>}
-gpgpu_const_cache:l1 N:128:64:2,L:R:f:N:L,A:2:64,4 # per-shader L1 constant memory cache  (READ-ONLY) config  {<nsets>:<bsize>:<assoc>,<rep>:<wr>:<alloc>:<wr_alloc>,<mshr>:<N>:<merge>,<mq>} 
-gpgpu_cache:il1     N:8:128:4,L:R:f:N:L,A:2:48,4 # shader L1 instruction cache config  {<nsets>:<bsize>:<assoc>,<rep>:<wr>:<alloc>:<wr_alloc>,<mshr>:<N>:<merge>,<mq>} 
-gpgpu_cache:dl1     N:64:128:6,L:L:m:N:H,A:128:8,8 # per-shader L1 data cache config  {<nsets>:<bsize>:<assoc>,<rep>:<wr>:<alloc>:<wr_alloc>,<mshr>:<N>:<merge>,<mq> | none}
-gpgpu_l1_cache_write_ratio                    0 # L1D write ratio
-gpgpu_l1_banks                         1 # The number of L1 cache banks
-gpgpu_l1_banks_byte_interleaving                   32 # l1 banks byte interleaving granularity
-gpgpu_l1_banks_hashing_function                    0 # l1 banks hashing function
-gpgpu_l1_latency                       1 # L1 Hit Latency
-gpgpu_smem_latency                     3 # smem Latency
-gpgpu_cache:dl1PrefL1                 none # per-shader L1 data cache config  {<nsets>:<bsize>:<assoc>,<rep>:<wr>:<alloc>:<wr_alloc>,<mshr>:<N>:<merge>,<mq> | none}
-gpgpu_cache:dl1PrefShared                 none # per-shader L1 data cache config  {<nsets>:<bsize>:<assoc>,<rep>:<wr>:<alloc>:<wr_alloc>,<mshr>:<N>:<merge>,<mq> | none}
-gpgpu_gmem_skip_L1D                    1 # global memory access skip L1D cache (implements -Xptxas -dlcm=cg, default=no skip)
-gpgpu_perfect_mem                      0 # enable perfect memory mode (no cache miss)
-n_regfile_gating_group                    4 # group of lanes that should be read/written together)
-gpgpu_clock_gated_reg_file                    0 # enable clock gated reg file for power calculations
-gpgpu_clock_gated_lanes                    0 # enable clock gated lanes for power calculations
-gpgpu_shader_registers                65536 # Number of registers per shader core. Limits number of concurrent CTAs. (default 8192)
-gpgpu_registers_per_block                 8192 # Maximum number of registers per CTA. (default 8192)
-gpgpu_ignore_resources_limitation                    0 # gpgpu_ignore_resources_limitation (default 0)
-gpgpu_shader_cta                      32 # Maximum number of concurrent CTAs in shader (default 32)
-gpgpu_num_cta_barriers                   16 # Maximum number of named barriers per CTA (default 16)
-gpgpu_n_clusters                      20 # number of processing clusters
-gpgpu_n_cores_per_cluster                    1 # number of simd cores per cluster
-gpgpu_n_cluster_ejection_buffer_size                    8 # number of packets in ejection buffer
-gpgpu_n_ldst_response_buffer_size                    2 # number of response packets in ld/st unit ejection buffer
-gpgpu_shmem_per_block                49152 # Size of shared memory per thread block or CTA (default 48kB)
-gpgpu_shmem_size                   98304 # Size of shared memory per shader core (default 16kB)
-gpgpu_shmem_option                     0 # Option list of shared memory sizes
-gpgpu_unified_l1d_size                    0 # Size of unified data cache(L1D + shared memory) in KB
-gpgpu_adaptive_cache_config                    0 # adaptive_cache_config
-gpgpu_shmem_sizeDefault                16384 # Size of shared memory per shader core (default 16kB)
-gpgpu_shmem_size_PrefL1                16384 # Size of shared memory per shader core (default 16kB)
-gpgpu_shmem_size_PrefShared                16384 # Size of shared memory per shader core (default 16kB)
-gpgpu_shmem_num_banks                   32 # Number of banks in the shared memory in each shader core (default 16)
-gpgpu_shmem_limited_broadcast                    0 # Limit shared memory to do one broadcast per cycle (default on)
-gpgpu_shmem_warp_parts                    1 # Number of portions a warp is divided into for shared memory bank conflict check 
-gpgpu_mem_unit_ports                    1 # The number of memory transactions allowed per core cycle
-gpgpu_shmem_warp_parts                    1 # Number of portions a warp is divided into for shared memory bank conflict check 
-gpgpu_warpdistro_shader                   -1 # Specify which shader core to collect the warp size distribution from
-gpgpu_warp_issue_shader                    0 # Specify which shader core to collect the warp issue distribution from
-gpgpu_local_mem_map                    1 # Mapping from local memory space address to simulated GPU physical address space (default = enabled)
-gpgpu_num_reg_banks                   32 # Number of register banks (default = 8)
-gpgpu_reg_bank_use_warp_id                    0 # Use warp ID in mapping registers to banks (default = off)
-gpgpu_sub_core_model                    0 # Sub Core Volta/Pascal model (default = off)
-gpgpu_enable_specialized_operand_collector                    1 # enable_specialized_operand_collector
-gpgpu_operand_collector_num_units_sp                   20 # number of collector units (default = 4)
-gpgpu_operand_collector_num_units_dp                    0 # number of collector units (default = 0)
-gpgpu_operand_collector_num_units_sfu                    4 # number of collector units (default = 4)
-gpgpu_operand_collector_num_units_int                    0 # number of collector units (default = 0)
-gpgpu_operand_collector_num_units_tensor_core                    4 # number of collector units (default = 4)
-gpgpu_operand_collector_num_units_mem                    8 # number of collector units (default = 2)
-gpgpu_operand_collector_num_units_gen                    0 # number of collector units (default = 0)
-gpgpu_operand_collector_num_in_ports_sp                    4 # number of collector unit in ports (default = 1)
-gpgpu_operand_collector_num_in_ports_dp                    0 # number of collector unit in ports (default = 0)
-gpgpu_operand_collector_num_in_ports_sfu                    1 # number of collector unit in ports (default = 1)
-gpgpu_operand_collector_num_in_ports_int                    0 # number of collector unit in ports (default = 0)
-gpgpu_operand_collector_num_in_ports_tensor_core                    1 # number of collector unit in ports (default = 1)
-gpgpu_operand_collector_num_in_ports_mem                    1 # number of collector unit in ports (default = 1)
-gpgpu_operand_collector_num_in_ports_gen                    0 # number of collector unit in ports (default = 0)
-gpgpu_operand_collector_num_out_ports_sp                    4 # number of collector unit in ports (default = 1)
-gpgpu_operand_collector_num_out_ports_dp                    0 # number of collector unit in ports (default = 0)
-gpgpu_operand_collector_num_out_ports_sfu                    1 # number of collector unit in ports (default = 1)
-gpgpu_operand_collector_num_out_ports_int                    0 # number of collector unit in ports (default = 0)
-gpgpu_operand_collector_num_out_ports_tensor_core                    1 # number of collector unit in ports (default = 1)
-gpgpu_operand_collector_num_out_ports_mem                    1 # number of collector unit in ports (default = 1)
-gpgpu_operand_collector_num_out_ports_gen                    0 # number of collector unit in ports (default = 0)
-gpgpu_coalesce_arch                   13 # Coalescing arch (GT200 = 13, Fermi = 20)
-gpgpu_num_sched_per_core                    2 # Number of warp schedulers per core
-gpgpu_max_insn_issue_per_warp                    2 # Max number of instructions that can be issued per warp in one cycle by scheduler (either 1 or 2)
-gpgpu_dual_issue_diff_exec_units                    1 # should dual issue use two different execution unit resources (Default = 1)
-gpgpu_simt_core_sim_order                    1 # Select the simulation order of cores in a cluster (0=Fix, 1=Round-Robin)
-gpgpu_pipeline_widths 4,0,0,1,1,4,0,0,1,1,6 # Pipeline widths ID_OC_SP,ID_OC_DP,ID_OC_INT,ID_OC_SFU,ID_OC_MEM,OC_EX_SP,OC_EX_DP,OC_EX_INT,OC_EX_SFU,OC_EX_MEM,EX_WB,ID_OC_TENSOR_CORE,OC_EX_TENSOR_CORE
-gpgpu_tensor_core_avail                    0 # Tensor Core Available (default=0)
-gpgpu_num_sp_units                     4 # Number of SP units (default=1)
-gpgpu_num_dp_units                     0 # Number of DP units (default=0)
-gpgpu_num_int_units                    0 # Number of INT units (default=0)
-gpgpu_num_sfu_units                    1 # Number of SF units (default=1)
-gpgpu_num_tensor_core_units                    0 # Number of tensor_core units (default=1)
-gpgpu_num_mem_units                    1 # Number if ldst units (default=1) WARNING: not hooked up to anything
-gpgpu_scheduler                      gto # Scheduler configuration: < lrr | gto | two_level_active > If two_level_active:<num_active_warps>:<inner_prioritization>:<outer_prioritization>For complete list of prioritization values see shader.h enum scheduler_prioritization_typeDefault: gto
-gpgpu_concurrent_kernel_sm                    0 # Support concurrent kernels on a SM (default = disabled)
-gpgpu_perfect_inst_const_cache                    0 # perfect inst and const cache mode, so all inst and const hits in the cache(default = disabled)
-gpgpu_inst_fetch_throughput                    1 # the number of fetched intruction per warp each cycle
-gpgpu_reg_file_port_throughput                    1 # the number ports of the register file
-specialized_unit_1         0,4,4,4,4,BRA # specialized unit config {<enabled>,<num_units>:<latency>:<initiation>,<ID_OC_SPEC>:<OC_EX_SPEC>,<NAME>}
-specialized_unit_2         0,4,4,4,4,BRA # specialized unit config {<enabled>,<num_units>:<latency>:<initiation>,<ID_OC_SPEC>:<OC_EX_SPEC>,<NAME>}
-specialized_unit_3         0,4,4,4,4,BRA # specialized unit config {<enabled>,<num_units>:<latency>:<initiation>,<ID_OC_SPEC>:<OC_EX_SPEC>,<NAME>}
-specialized_unit_4         0,4,4,4,4,BRA # specialized unit config {<enabled>,<num_units>:<latency>:<initiation>,<ID_OC_SPEC>:<OC_EX_SPEC>,<NAME>}
-specialized_unit_5         0,4,4,4,4,BRA # specialized unit config {<enabled>,<num_units>:<latency>:<initiation>,<ID_OC_SPEC>:<OC_EX_SPEC>,<NAME>}
-specialized_unit_6         0,4,4,4,4,BRA # specialized unit config {<enabled>,<num_units>:<latency>:<initiation>,<ID_OC_SPEC>:<OC_EX_SPEC>,<NAME>}
-specialized_unit_7         0,4,4,4,4,BRA # specialized unit config {<enabled>,<num_units>:<latency>:<initiation>,<ID_OC_SPEC>:<OC_EX_SPEC>,<NAME>}
-specialized_unit_8         0,4,4,4,4,BRA # specialized unit config {<enabled>,<num_units>:<latency>:<initiation>,<ID_OC_SPEC>:<OC_EX_SPEC>,<NAME>}
-gpgpu_perf_sim_memcpy                    1 # Fill the L2 cache on memcpy
-gpgpu_simple_dram_model                    0 # simple_dram_model with fixed latency and BW
-gpgpu_dram_scheduler                    1 # 0 = fifo, 1 = FR-FCFS (defaul)
-gpgpu_dram_partition_queues              8:8:8:8 # i2$:$2d:d2$:$2i
-l2_ideal                               0 # Use a ideal L2 cache that always hit
-gpgpu_cache:dl2     N:64:128:16,L:B:m:W:L,A:1024:1024,4:0,32 # unified banked L2 data cache config  {<nsets>:<bsize>:<assoc>,<rep>:<wr>:<alloc>:<wr_alloc>,<mshr>:<N>:<merge>,<mq>}
-gpgpu_cache:dl2_texture_only                    0 # L2 cache used for texture only
-gpgpu_n_mem                            8 # number of memory modules (e.g. memory controllers) in gpu
-gpgpu_n_sub_partition_per_mchannel                    2 # number of memory subpartition in each memory module
-gpgpu_n_mem_per_ctrlr                    1 # number of memory chips per memory controller
-gpgpu_memlatency_stat                   14 # track and display latency statistics 0x2 enables MC, 0x4 enables queue logs
-gpgpu_frfcfs_dram_sched_queue_size                   64 # 0 = unlimited (default); # entries per chip
-gpgpu_dram_return_queue_size                  116 # 0 = unlimited (default); # entries per chip
-gpgpu_dram_buswidth                    4 # default = 4 bytes (8 bytes per cycle at DDR)
-gpgpu_dram_burst_length                    8 # Burst length of each DRAM request (default = 4 data bus cycle)
-dram_data_command_freq_ratio                    4 # Frequency ratio between DRAM data bus and command bus (default = 2 times, i.e. DDR)
-gpgpu_dram_timing_opt nbk=16:CCD=2:RRD=6:RCD=12:RAS=28:RP=12:RC=40: CL=12:WL=4:CDLR=5:WR=12:nbkgrp=1:CCDL=0:RTPL=0 # DRAM timing parameters = {nbk:tCCD:tRRD:tRCD:tRAS:tRP:tRC:CL:WL:tCDLR:tWR:nbkgrp:tCCDL:tRTPL}
-gpgpu_l2_rop_latency                  120 # ROP queue latency (default 85)
-dram_latency                         100 # DRAM latency (default 30)
-dram_dual_bus_interface                    0 # dual_bus_interface (default = 0) 
-dram_bnk_indexing_policy                    0 # dram_bnk_indexing_policy (0 = normal indexing, 1 = Xoring with the higher bits) (Default = 0)
-dram_bnkgrp_indexing_policy                    0 # dram_bnkgrp_indexing_policy (0 = take higher bits, 1 = take lower bits) (Default = 0)
-dram_seperate_write_queue_enable                    0 # Seperate_Write_Queue_Enable
-dram_write_queue_size             32:28:16 # Write_Queue_Size
-dram_elimnate_rw_turnaround                    0 # elimnate_rw_turnaround i.e set tWTR and tRTW = 0
-icnt_flit_size                        32 # icnt_flit_size
-gpgpu_mem_addr_mapping dramid@8;00000000.00000000.00000000.00000000.0000RRRR.RRRRRRRR.RBBBCCCC.BCCSSSSS # mapping memory address to dram model {dramid@<start bit>;<memory address map>}
-gpgpu_mem_addr_test                    0 # run sweep test to check address mapping for aliased address
-gpgpu_mem_address_mask                    1 # 0 = old addressing mask, 1 = new addressing mask, 2 = new add. mask + flipped bank sel and chip sel bits
-gpgpu_memory_partition_indexing                    0 # 0 = no indexing, 1 = bitwise xoring, 2 = IPoly, 3 = custom indexing
-accelwattch_xml_file accelwattch_sass_sim.xml # AccelWattch XML file
-power_simulation_enabled                    0 # Turn on power simulator (1=On, 0=Off)
-power_per_cycle_dump                    0 # Dump detailed power output each cycle
-hw_perf_file_name            hw_perf.csv # Hardware Performance Statistics file
-hw_perf_bench_name                       # Kernel Name in Hardware Performance Statistics file
-power_simulation_mode                    0 # Switch performance counter input for power simulation (0=Sim, 1=HW, 2=HW-Sim Hybrid)
-dvfs_enabled                           0 # Turn on DVFS for power model
-aggregate_power_stats                    0 # Accumulate power across all kernels
-accelwattch_hybrid_perfsim_L1_RH                    0 # Get L1 Read Hits for Accelwattch-Hybrid from Accel-Sim
-accelwattch_hybrid_perfsim_L1_RM                    0 # Get L1 Read Misses for Accelwattch-Hybrid from Accel-Sim
-accelwattch_hybrid_perfsim_L1_WH                    0 # Get L1 Write Hits for Accelwattch-Hybrid from Accel-Sim
-accelwattch_hybrid_perfsim_L1_WM                    0 # Get L1 Write Misses for Accelwattch-Hybrid from Accel-Sim
-accelwattch_hybrid_perfsim_L2_RH                    0 # Get L2 Read Hits for Accelwattch-Hybrid from Accel-Sim
-accelwattch_hybrid_perfsim_L2_RM                    0 # Get L2 Read Misses for Accelwattch-Hybrid from Accel-Sim
-accelwattch_hybrid_perfsim_L2_WH                    0 # Get L2 Write Hits for Accelwattch-Hybrid from Accel-Sim
-accelwattch_hybrid_perfsim_L2_WM                    0 # Get L2 Write Misses for Accelwattch-Hybrid from Accel-Sim
-accelwattch_hybrid_perfsim_CC_ACC                    0 # Get Constant Cache Acesses for Accelwattch-Hybrid from Accel-Sim
-accelwattch_hybrid_perfsim_SHARED_ACC                    0 # Get Shared Memory Acesses for Accelwattch-Hybrid from Accel-Sim
-accelwattch_hybrid_perfsim_DRAM_RD                    0 # Get DRAM Reads for Accelwattch-Hybrid from Accel-Sim
-accelwattch_hybrid_perfsim_DRAM_WR                    0 # Get DRAM Writes for Accelwattch-Hybrid from Accel-Sim
-accelwattch_hybrid_perfsim_NOC                    0 # Get Interconnect Acesses for Accelwattch-Hybrid from Accel-Sim
-accelwattch_hybrid_perfsim_PIPE_DUTY                    0 # Get Pipeline Duty Cycle Acesses for Accelwattch-Hybrid from Accel-Sim
-accelwattch_hybrid_perfsim_NUM_SM_IDLE                    0 # Get Number of Idle SMs for Accelwattch-Hybrid from Accel-Sim
-accelwattch_hybrid_perfsim_CYCLES                    0 # Get Executed Cycles for Accelwattch-Hybrid from Accel-Sim
-accelwattch_hybrid_perfsim_VOLTAGE                    0 # Get Chip Voltage for Accelwattch-Hybrid from Accel-Sim
-power_trace_enabled                    0 # produce a file for the power trace (1=On, 0=Off)
-power_trace_zlevel                     6 # Compression level of the power trace output log (0=no comp, 9=highest)
-steady_power_levels_enabled                    0 # produce a file for the steady power levels (1=On, 0=Off)
-steady_state_definition                  8:4 # allowed deviation:number of samples
-gpgpu_max_cycle                        0 # terminates gpu simulation early (0 = no limit)
-gpgpu_max_insn                         0 # terminates gpu simulation early (0 = no limit)
-gpgpu_max_cta                          0 # terminates gpu simulation early (0 = no limit)
-gpgpu_max_completed_cta                    0 # terminates gpu simulation early (0 = no limit)
-gpgpu_runtime_stat                   500 # display runtime statistics such as dram utilization {<freq>:<flag>}
-liveness_message_freq                    1 # Minimum number of seconds between simulation liveness messages (0 = always print)
-gpgpu_compute_capability_major                    7 # Major compute capability version number
-gpgpu_compute_capability_minor                    0 # Minor compute capability version number
-gpgpu_flush_l1_cache                    0 # Flush L1 cache at the end of each kernel call
-gpgpu_flush_l2_cache                    0 # Flush L2 cache at the end of each kernel call
-gpgpu_deadlock_detect                    1 # Stop the simulation at deadlock (1=on (default), 0=off)
-gpgpu_ptx_instruction_classification                    0 # if enabled will classify ptx instruction types per kernel (Max 255 kernels now)
-gpgpu_ptx_sim_mode                     0 # Select between Performance (default) or Functional simulation (1)
-gpgpu_clock_domains 1607.0:2962.0:1607.0:2750.0 # Clock Domain Frequencies in MhZ {<Core Clock>:<ICNT Clock>:<L2 Clock>:<DRAM Clock>}
-gpgpu_max_concurrent_kernel                   32 # maximum kernels that can run concurrently on GPU, set this value according to max resident grids for your compute capability
-gpgpu_cflog_interval                    0 # Interval between each snapshot in control flow logger
-visualizer_enabled                     0 # Turn on visualizer output (1=On, 0=Off)
-visualizer_outputfile                 NULL # Specifies the output log file for visualizer
-visualizer_zlevel                      6 # Compression level of the visualizer output log (0=no comp, 9=highest)
-gpgpu_stack_size_limit                 1024 # GPU thread stack size
-gpgpu_heap_size_limit              8388608 # GPU malloc heap size 
-gpgpu_runtime_sync_depth_limit                    2 # GPU device runtime synchronize depth
-gpgpu_runtime_pending_launch_count_limit                 2048 # GPU device runtime pending launch count
-trace_enabled                          0 # Turn on traces
-trace_components                    none # comma seperated list of traces to enable. Complete list found in trace_streams.tup. Default none
-trace_sampling_core                    0 # The core which is printed using CORE_DPRINTF. Default 0
-trace_sampling_memory_partition                   -1 # The memory partition which is printed using MEMPART_DPRINTF. Default -1 (i.e. all)
-enable_ptx_file_line_stats                    1 # Turn on PTX source line statistic profiling. (1 = On)
-ptx_line_stats_filename gpgpu_inst_stats.txt # Output file for PTX source line statistics.
-gpgpu_kernel_launch_latency                    0 # Kernel launch latency in cycles. Default: 0
-gpgpu_cdp_enabled                      0 # Turn on CDP
-gpgpu_TB_launch_latency                    0 # thread block launch latency in cycles. Default: 0
DRAM Timing Options:
nbk                                    16 # number of banks
CCD                                     2 # column to column delay
RRD                                     6 # minimal delay between activation of rows in different banks
RCD                                    12 # row to column delay
RAS                                    28 # time needed to activate row
RP                                     12 # time needed to precharge (deactivate) row
RC                                     40 # row cycle time
CDLR                                    5 # switching from write to read (changes tWTR)
WR                                     12 # last data-in to row precharge
CL                                     12 # CAS latency
WL                                      4 # Write latency
nbkgrp                                  1 # number of bank groups
CCDL                                    0 # column to column delay between accesses to different bank groups
RTPL                                    0 # read to precharge delay between accesses to different bank groups
Total number of memory sub partition = 16
addr_dec_mask[CHIP]  = 0000000000000700 	high:11 low:8
addr_dec_mask[BK]    = 0000000000038080 	high:18 low:7
addr_dec_mask[ROW]   = 000000007ffc0000 	high:31 low:18
addr_dec_mask[COL]   = 000000000000787f 	high:15 low:0
addr_dec_mask[BURST] = 000000000000001f 	high:5 low:0
sub_partition_id_mask = 0000000000000080
GPGPU-Sim uArch: clock freqs: 1607000000.000000:2962000000.000000:1607000000.000000:2750000000.000000
GPGPU-Sim uArch: clock periods: 0.00000000062227753578:0.00000000033760972316:0.00000000062227753578:0.00000000036363636364
*** Initializing Memory Statistics ***
GPGPU-Sim uArch: interconnect node map (shaderID+MemID to icntID)
GPGPU-Sim uArch: Memory nodes ID start from index: 20
GPGPU-Sim uArch:    0   1   2   3   4   5   6
GPGPU-Sim uArch:    7   8   9  10  11  12  13
GPGPU-Sim uArch:   14  15  16  17  18  19  20
GPGPU-Sim uArch:   21  22  23  24  25  26  27
GPGPU-Sim uArch:   28  29  30  31  32  33  34
GPGPU-Sim uArch:   35  36  37  38  39  40  41
GPGPU-Sim uArch:   42  43  44  45  46  47  48
GPGPU-Sim uArch:   49
GPGPU-Sim uArch: interconnect node reverse map (icntID to shaderID+MemID)
GPGPU-Sim uArch: Memory nodes start from ID: 20
GPGPU-Sim uArch:    0   1   2   3   4   5   6
GPGPU-Sim uArch:    7   8   9  10  11  12  13
GPGPU-Sim uArch:   14  15  16  17  18  19  20
GPGPU-Sim uArch:   21  22  23  24  25  26  27
GPGPU-Sim uArch:   28  29  30  31  32  33  34
GPGPU-Sim uArch:   35  36  37  38  39  40  41
GPGPU-Sim uArch:   42  43  44  45  46  47  48
GPGPU-Sim uArch:   49
46c62f3a5d4483ced560c28c2bf4c16b  /benchrun/accelsim-ptx/cuda10-matrixmul/sm6_gtx1080/input-wa32-ha64-wb64-hb32/matrixMul
Extracting PTX file and ptxas options    1: matrixMul.1.sm_30.ptx -arch=sm_30
GPGPU-Sim uArch: performance model initialization complete.
self exe links to: /benchrun/accelsim-ptx/cuda10-matrixmul/sm6_gtx1080/input-wa32-ha64-wb64-hb32/matrixMul
self exe links to: /benchrun/accelsim-ptx/cuda10-matrixmul/sm6_gtx1080/input-wa32-ha64-wb64-hb32/matrixMul
10.1
GPGPU-Sim PTX: __cudaRegisterFatBinary, fat_cubin_handle = 1, filename=default
self exe links to: /benchrun/accelsim-ptx/cuda10-matrixmul/sm6_gtx1080/input-wa32-ha64-wb64-hb32/matrixMul
Running md5sum using "md5sum /benchrun/accelsim-ptx/cuda10-matrixmul/sm6_gtx1080/input-wa32-ha64-wb64-hb32/matrixMul "
self exe links to: /benchrun/accelsim-ptx/cuda10-matrixmul/sm6_gtx1080/input-wa32-ha64-wb64-hb32/matrixMul
Extracting specific PTX file named matrixMul.1.sm_30.ptx 
GPGPU-Sim PTX: __cudaRegisterFunction _Z13MatrixMulCUDAILi32EEvPfS0_S0_ii : hostFun 0x0x5606f3c0373a, fat_cubin_handle = 1
GPGPU-Sim PTX: Parsing matrixMul.1.sm_30.ptx
GPGPU-Sim PTX: allocating shared region for "_ZZ13MatrixMulCUDAILi16EEvPfS0_S0_iiE2As" from 0x0 to 0x400 (shared memory space)
GPGPU-Sim PTX: allocating shared region for "_ZZ13MatrixMulCUDAILi16EEvPfS0_S0_iiE2Bs" from 0x400 to 0x800 (shared memory space)
GPGPU-Sim PTX: instruction assembly for function '_Z13MatrixMulCUDAILi16EEvPfS0_S0_ii'...   done.
GPGPU-Sim PTX: allocating shared region for "_ZZ13MatrixMulCUDAILi32EEvPfS0_S0_iiE2As" from 0x0 to 0x1000 (shared memory space)
GPGPU-Sim PTX: allocating shared region for "_ZZ13MatrixMulCUDAILi32EEvPfS0_S0_iiE2Bs" from 0x1000 to 0x2000 (shared memory space)
GPGPU-Sim PTX: instruction assembly for function '_Z13MatrixMulCUDAILi32EEvPfS0_S0_ii'...   done.
GPGPU-Sim PTX: finished parsing EMBEDDED .ptx file matrixMul.1.sm_30.ptx
GPGPU-Sim PTX: loading globals with explicit initializers... 
GPGPU-Sim PTX: finished loading globals (0 bytes total).
GPGPU-Sim PTX: loading constants with explicit initializers...  done.
GPGPU-Sim PTX: Loading PTXInfo from matrixMul.1.sm_30.ptx
GPGPU-Sim PTX: Kernel '_Z13MatrixMulCUDAILi32EEvPfS0_S0_ii' : regs=29, lmem=0, smem=8192, cmem=352
GPGPU-Sim PTX: Kernel '_Z13MatrixMulCUDAILi16EEvPfS0_S0_ii' : regs=29, lmem=0, smem=2048, cmem=352
GPGPU-Sim PTX: __cudaRegisterFunction _Z13MatrixMulCUDAILi16EEvPfS0_S0_ii : hostFun 0x0x5606f3c036fd, fat_cubin_handle = 1
[Matrix Multiply Using CUDA] - Starting...
GPU Device 0: "Volta" with compute capability 7.0

MatrixA(32,64), MatrixB(64,32)
GPGPU-Sim PTX: cudaStreamCreate
Computing result using CUDA Kernel...
GPGPU-Sim PTX: Setting up arguments for 8 bytes starting at 0x7ffdccd2cca8..
GPGPU-Sim PTX: Setting up arguments for 8 bytes starting at 0x7ffdccd2cca0..
GPGPU-Sim PTX: Setting up arguments for 8 bytes starting at 0x7ffdccd2cc98..
GPGPU-Sim PTX: Setting up arguments for 4 bytes starting at 0x7ffdccd2cc94..
GPGPU-Sim PTX: Setting up arguments for 4 bytes starting at 0x7ffdccd2cc90..

GPGPU-Sim PTX: cudaLaunch for 0x0x5606f3c0373a (mode=performance simulation) on stream 1
GPGPU-Sim PTX: finding reconvergence points for '_Z13MatrixMulCUDAILi32EEvPfS0_S0_ii'...
GPGPU-Sim PTX: Finding dominators for '_Z13MatrixMulCUDAILi32EEvPfS0_S0_ii'...
GPGPU-Sim PTX: Finding immediate dominators for '_Z13MatrixMulCUDAILi32EEvPfS0_S0_ii'...
GPGPU-Sim PTX: Finding postdominators for '_Z13MatrixMulCUDAILi32EEvPfS0_S0_ii'...
GPGPU-Sim PTX: Finding immediate postdominators for '_Z13MatrixMulCUDAILi32EEvPfS0_S0_ii'...
GPGPU-Sim PTX: pre-decoding instructions for '_Z13MatrixMulCUDAILi32EEvPfS0_S0_ii'...
GPGPU-Sim PTX: reconvergence points for _Z13MatrixMulCUDAILi32EEvPfS0_S0_ii...
GPGPU-Sim PTX:  1 (potential) branch divergence @  PC=0x3c8 (matrixMul.1.sm_30.ptx:182) @%p1 bra BB1_3;
GPGPU-Sim PTX:    immediate post dominator      @  PC=0x7e0 (matrixMul.1.sm_30.ptx:318) mov.u32 %r31, %ctaid.x;
GPGPU-Sim PTX:  2 (potential) branch divergence @  PC=0x7d8 (matrixMul.1.sm_30.ptx:315) @%p2 bra BB1_2;
GPGPU-Sim PTX:    immediate post dominator      @  PC=0x7e0 (matrixMul.1.sm_30.ptx:318) mov.u32 %r31, %ctaid.x;
GPGPU-Sim PTX: ... end of reconvergence points for _Z13MatrixMulCUDAILi32EEvPfS0_S0_ii
GPGPU-Sim PTX: ... done pre-decoding instructions for '_Z13MatrixMulCUDAILi32EEvPfS0_S0_ii'.
GPGPU-Sim PTX: pushing kernel '_Z13MatrixMulCUDAILi32EEvPfS0_S0_ii' to stream 1, gridDim= (2,2,1) blockDim = (32,32,1) 
GPGPU-Sim: synchronize waiting for inactive GPU simulation
GPGPU-Sim API: Stream Manager State
GPGPU-Sim API:    stream 1 has 5 operations
GPGPU-Sim API:       0 :  stream operation memcpy host-to-device
GPGPU-Sim API:       1 :  stream operation memcpy host-to-device
GPGPU-Sim API:       2 :  stream operation event
GPGPU-Sim API:       3 :  stream operation kernel
GPGPU-Sim API:       4 :  stream operation event
event update
GPGPU-Sim uArch: Shader 0 bind to kernel 1 '_Z13MatrixMulCUDAILi32EEvPfS0_S0_ii'
GPGPU-Sim uArch: CTA/core = 2, limited by: threads shmem regs
GPGPU-Sim uArch: Shader 1 bind to kernel 1 '_Z13MatrixMulCUDAILi32EEvPfS0_S0_ii'
GPGPU-Sim uArch: Shader 2 bind to kernel 1 '_Z13MatrixMulCUDAILi32EEvPfS0_S0_ii'
GPGPU-Sim uArch: Shader 3 bind to kernel 1 '_Z13MatrixMulCUDAILi32EEvPfS0_S0_ii'
Destroy streams for kernel 1: size 0
event update
kernel_name = _Z13MatrixMulCUDAILi32EEvPfS0_S0_ii 
kernel_launch_uid = 1 
gpu_sim_cycle = 5106
gpu_sim_insn = 630784
gpu_ipc =     123.5378
gpu_tot_sim_cycle = 5106
gpu_tot_sim_insn = 630784
gpu_tot_ipc =     123.5378
gpu_tot_issued_cta = 4
gpu_occupancy = 48.9476% 
gpu_tot_occupancy = 48.9476% 
max_total_param_size = 0
gpu_stall_dramfull = 0
gpu_stall_icnt2sh    = 1911
partiton_level_parallism =       0.0846
partiton_level_parallism_total  =       0.0846
partiton_level_parallism_util =       1.9726
partiton_level_parallism_util_total  =       1.9726
L2_BW  =       8.0193 GB/Sec
L2_BW_total  =       8.0193 GB/Sec
gpu_total_sim_rate=630784

========= Core cache stats =========
L1I_cache:
	L1I_total_cache_accesses = 9984
	L1I_total_cache_misses = 1375
	L1I_total_cache_miss_rate = 0.1377
	L1I_total_cache_pending_hits = 0
	L1I_total_cache_reservation_fails = 0
L1D_cache:
	L1D_cache_core[0]: Access = 0, Miss = 0, Miss_rate = -nan, Pending_hits = 0, Reservation_fails = 0
	L1D_cache_core[1]: Access = 0, Miss = 0, Miss_rate = -nan, Pending_hits = 0, Reservation_fails = 0
	L1D_cache_core[2]: Access = 0, Miss = 0, Miss_rate = -nan, Pending_hits = 0, Reservation_fails = 0
	L1D_cache_core[3]: Access = 0, Miss = 0, Miss_rate = -nan, Pending_hits = 0, Reservation_fails = 0
	L1D_cache_core[4]: Access = 0, Miss = 0, Miss_rate = -nan, Pending_hits = 0, Reservation_fails = 0
	L1D_cache_core[5]: Access = 0, Miss = 0, Miss_rate = -nan, Pending_hits = 0, Reservation_fails = 0
	L1D_cache_core[6]: Access = 0, Miss = 0, Miss_rate = -nan, Pending_hits = 0, Reservation_fails = 0
	L1D_cache_core[7]: Access = 0, Miss = 0, Miss_rate = -nan, Pending_hits = 0, Reservation_fails = 0
	L1D_cache_core[8]: Access = 0, Miss = 0, Miss_rate = -nan, Pending_hits = 0, Reservation_fails = 0
	L1D_cache_core[9]: Access = 0, Miss = 0, Miss_rate = -nan, Pending_hits = 0, Reservation_fails = 0
	L1D_cache_core[10]: Access = 0, Miss = 0, Miss_rate = -nan, Pending_hits = 0, Reservation_fails = 0
	L1D_cache_core[11]: Access = 0, Miss = 0, Miss_rate = -nan, Pending_hits = 0, Reservation_fails = 0
	L1D_cache_core[12]: Access = 0, Miss = 0, Miss_rate = -nan, Pending_hits = 0, Reservation_fails = 0
	L1D_cache_core[13]: Access = 0, Miss = 0, Miss_rate = -nan, Pending_hits = 0, Reservation_fails = 0
	L1D_cache_core[14]: Access = 0, Miss = 0, Miss_rate = -nan, Pending_hits = 0, Reservation_fails = 0
	L1D_cache_core[15]: Access = 0, Miss = 0, Miss_rate = -nan, Pending_hits = 0, Reservation_fails = 0
	L1D_cache_core[16]: Access = 0, Miss = 0, Miss_rate = -nan, Pending_hits = 0, Reservation_fails = 0
	L1D_cache_core[17]: Access = 0, Miss = 0, Miss_rate = -nan, Pending_hits = 0, Reservation_fails = 0
	L1D_cache_core[18]: Access = 0, Miss = 0, Miss_rate = -nan, Pending_hits = 0, Reservation_fails = 0
	L1D_cache_core[19]: Access = 0, Miss = 0, Miss_rate = -nan, Pending_hits = 0, Reservation_fails = 0
	L1D_total_cache_accesses = 0
	L1D_total_cache_misses = 0
	L1D_total_cache_pending_hits = 0
	L1D_total_cache_reservation_fails = 0
	L1D_cache_data_port_util = 0.000
	L1D_cache_fill_port_util = 0.000
L1C_cache:
	L1C_total_cache_accesses = 640
	L1C_total_cache_misses = 256
	L1C_total_cache_miss_rate = 0.4000
	L1C_total_cache_pending_hits = 0
	L1C_total_cache_reservation_fails = 753
L1T_cache:
	L1T_total_cache_accesses = 0
	L1T_total_cache_misses = 0
	L1T_total_cache_pending_hits = 0
	L1T_total_cache_reservation_fails = 0

Total_core_cache_stats:
	Total_core_cache_stats_breakdown[GLOBAL_ACC_R][HIT] = 0
	Total_core_cache_stats_breakdown[GLOBAL_ACC_R][HIT_RESERVED] = 0
	Total_core_cache_stats_breakdown[GLOBAL_ACC_R][MISS] = 0
	Total_core_cache_stats_breakdown[GLOBAL_ACC_R][RESERVATION_FAIL] = 0
	Total_core_cache_stats_breakdown[GLOBAL_ACC_R][SECTOR_MISS] = 0
	Total_core_cache_stats_breakdown[GLOBAL_ACC_R][MSHR_HIT] = 0
	Total_core_cache_stats_breakdown[LOCAL_ACC_R][HIT] = 0
	Total_core_cache_stats_breakdown[LOCAL_ACC_R][HIT_RESERVED] = 0
	Total_core_cache_stats_breakdown[LOCAL_ACC_R][MISS] = 0
	Total_core_cache_stats_breakdown[LOCAL_ACC_R][RESERVATION_FAIL] = 0
	Total_core_cache_stats_breakdown[LOCAL_ACC_R][SECTOR_MISS] = 0
	Total_core_cache_stats_breakdown[LOCAL_ACC_R][MSHR_HIT] = 0
	Total_core_cache_stats_breakdown[CONST_ACC_R][HIT] = 384
	Total_core_cache_stats_breakdown[CONST_ACC_R][HIT_RESERVED] = 0
	Total_core_cache_stats_breakdown[CONST_ACC_R][MISS] = 256
	Total_core_cache_stats_breakdown[CONST_ACC_R][RESERVATION_FAIL] = 753
	Total_core_cache_stats_breakdown[CONST_ACC_R][SECTOR_MISS] = 0
	Total_core_cache_stats_breakdown[CONST_ACC_R][MSHR_HIT] = 252
	Total_core_cache_stats_breakdown[TEXTURE_ACC_R][HIT] = 0
	Total_core_cache_stats_breakdown[TEXTURE_ACC_R][HIT_RESERVED] = 0
	Total_core_cache_stats_breakdown[TEXTURE_ACC_R][MISS] = 0
	Total_core_cache_stats_breakdown[TEXTURE_ACC_R][RESERVATION_FAIL] = 0
	Total_core_cache_stats_breakdown[TEXTURE_ACC_R][SECTOR_MISS] = 0
	Total_core_cache_stats_breakdown[TEXTURE_ACC_R][MSHR_HIT] = 0
	Total_core_cache_stats_breakdown[GLOBAL_ACC_W][HIT] = 0
	Total_core_cache_stats_breakdown[GLOBAL_ACC_W][HIT_RESERVED] = 0
	Total_core_cache_stats_breakdown[GLOBAL_ACC_W][MISS] = 0
	Total_core_cache_stats_breakdown[GLOBAL_ACC_W][RESERVATION_FAIL] = 0
	Total_core_cache_stats_breakdown[GLOBAL_ACC_W][SECTOR_MISS] = 0
	Total_core_cache_stats_breakdown[GLOBAL_ACC_W][MSHR_HIT] = 0
	Total_core_cache_stats_breakdown[LOCAL_ACC_W][HIT] = 0
	Total_core_cache_stats_breakdown[LOCAL_ACC_W][HIT_RESERVED] = 0
	Total_core_cache_stats_breakdown[LOCAL_ACC_W][MISS] = 0
	Total_core_cache_stats_breakdown[LOCAL_ACC_W][RESERVATION_FAIL] = 0
	Total_core_cache_stats_breakdown[LOCAL_ACC_W][SECTOR_MISS] = 0
	Total_core_cache_stats_breakdown[LOCAL_ACC_W][MSHR_HIT] = 0
	Total_core_cache_stats_breakdown[L1_WRBK_ACC][HIT] = 0
	Total_core_cache_stats_breakdown[L1_WRBK_ACC][HIT_RESERVED] = 0
	Total_core_cache_stats_breakdown[L1_WRBK_ACC][MISS] = 0
	Total_core_cache_stats_breakdown[L1_WRBK_ACC][RESERVATION_FAIL] = 0
	Total_core_cache_stats_breakdown[L1_WRBK_ACC][SECTOR_MISS] = 0
	Total_core_cache_stats_breakdown[L1_WRBK_ACC][MSHR_HIT] = 0
	Total_core_cache_stats_breakdown[L2_WRBK_ACC][HIT] = 0
	Total_core_cache_stats_breakdown[L2_WRBK_ACC][HIT_RESERVED] = 0
	Total_core_cache_stats_breakdown[L2_WRBK_ACC][MISS] = 0
	Total_core_cache_stats_breakdown[L2_WRBK_ACC][RESERVATION_FAIL] = 0
	Total_core_cache_stats_breakdown[L2_WRBK_ACC][SECTOR_MISS] = 0
	Total_core_cache_stats_breakdown[L2_WRBK_ACC][MSHR_HIT] = 0
	Total_core_cache_stats_breakdown[INST_ACC_R][HIT] = 8609
	Total_core_cache_stats_breakdown[INST_ACC_R][HIT_RESERVED] = 0
	Total_core_cache_stats_breakdown[INST_ACC_R][MISS] = 1375
	Total_core_cache_stats_breakdown[INST_ACC_R][RESERVATION_FAIL] = 0
	Total_core_cache_stats_breakdown[INST_ACC_R][SECTOR_MISS] = 0
	Total_core_cache_stats_breakdown[INST_ACC_R][MSHR_HIT] = 1331
	Total_core_cache_stats_breakdown[L1_WR_ALLOC_R][HIT] = 0
	Total_core_cache_stats_breakdown[L1_WR_ALLOC_R][HIT_RESERVED] = 0
	Total_core_cache_stats_breakdown[L1_WR_ALLOC_R][MISS] = 0
	Total_core_cache_stats_breakdown[L1_WR_ALLOC_R][RESERVATION_FAIL] = 0
	Total_core_cache_stats_breakdown[L1_WR_ALLOC_R][SECTOR_MISS] = 0
	Total_core_cache_stats_breakdown[L1_WR_ALLOC_R][MSHR_HIT] = 0
	Total_core_cache_stats_breakdown[L2_WR_ALLOC_R][HIT] = 0
	Total_core_cache_stats_breakdown[L2_WR_ALLOC_R][HIT_RESERVED] = 0
	Total_core_cache_stats_breakdown[L2_WR_ALLOC_R][MISS] = 0
	Total_core_cache_stats_breakdown[L2_WR_ALLOC_R][RESERVATION_FAIL] = 0
	Total_core_cache_stats_breakdown[L2_WR_ALLOC_R][SECTOR_MISS] = 0
	Total_core_cache_stats_breakdown[L2_WR_ALLOC_R][MSHR_HIT] = 0
	Total_core_cache_stats_breakdown[CONST_ACC_R][TOTAL_ACCESS] = 640
	Total_core_cache_stats_breakdown[INST_ACC_R][TOTAL_ACCESS] = 9984

Total_core_cache_fail_stats:
	Total_core_cache_fail_stats_breakdown[CONST_ACC_R][MSHR_MERGE_ENRTY_FAIL] = 753
ctas_completed 4, Shader 0 warp_id issue ditsribution:
warp_id:
0, 1, 2, 3, 4, 5, 6, 7, 8, 9, 10, 11, 12, 13, 14, 15, 16, 17, 18, 19, 20, 21, 22, 23, 24, 25, 26, 27, 28, 29, 30, 31, 
distro:
165, 164, 163, 162, 166, 168, 165, 164, 163, 163, 165, 163, 165, 162, 163, 162, 162, 164, 165, 164, 166, 161, 162, 164, 163, 165, 169, 167, 166, 167, 169, 169, 
gpgpu_n_tot_thrd_icount = 638976
gpgpu_n_tot_w_icount = 19968
gpgpu_n_stall_shd_mem = 1016
gpgpu_n_mem_read_local = 0
gpgpu_n_mem_write_local = 0
gpgpu_n_mem_read_global = 256
gpgpu_n_mem_write_global = 128
gpgpu_n_mem_texture = 0
gpgpu_n_mem_const = 4
gpgpu_n_load_insn  = 8192
gpgpu_n_store_insn = 4096
gpgpu_n_shmem_insn = 270336
gpgpu_n_sstarr_insn = 0
gpgpu_n_tex_insn = 0
gpgpu_n_const_mem_insn = 0
gpgpu_n_param_mem_insn = 20480
gpgpu_n_shmem_bkconflict = 0
gpgpu_n_cache_bkconflict = 0
gpgpu_n_intrawarp_mshr_merge = 0
gpgpu_n_cmem_portconflict = 753
gpgpu_stall_shd_mem[c_mem][resource_stall] = 753
gpgpu_stall_shd_mem[s_mem][bk_conf] = 0
gpgpu_stall_shd_mem[gl_mem][resource_stall] = 0
gpgpu_stall_shd_mem[gl_mem][coal_stall] = 0
gpgpu_stall_shd_mem[gl_mem][data_port_stall] = 0
gpu_reg_bank_conflict_stalls = 0
Warp Occupancy Distribution:
Stall:6772	W0_Idle:11367	W0_Scoreboard:3688	W1:0	W2:0	W3:0	W4:0	W5:0	W6:0	W7:0	W8:0	W9:0	W10:0	W11:0	W12:0	W13:0	W14:0	W15:0	W16:0	W17:0	W18:0	W19:0	W20:0	W21:0	W22:0	W23:0	W24:0	W25:0	W26:0	W27:0	W28:0	W29:0	W30:0	W31:0	W32:19968
single_issue_nums: WS0:8914	WS1:8976	
dual_issue_nums: WS0:535	WS1:504	
traffic_breakdown_coretomem[CONST_ACC_R] = 32 {8:4,}
traffic_breakdown_coretomem[GLOBAL_ACC_R] = 2048 {8:256,}
traffic_breakdown_coretomem[GLOBAL_ACC_W] = 17408 {136:128,}
traffic_breakdown_coretomem[INST_ACC_R] = 352 {8:44,}
traffic_breakdown_memtocore[CONST_ACC_R] = 288 {72:4,}
traffic_breakdown_memtocore[GLOBAL_ACC_R] = 34816 {136:256,}
traffic_breakdown_memtocore[GLOBAL_ACC_W] = 1024 {8:128,}
traffic_breakdown_memtocore[INST_ACC_R] = 5984 {136:44,}
maxmflatency = 395 
max_icnt2mem_latency = 15 
maxmrqlatency = 151 
max_icnt2sh_latency = 55 
averagemflatency = 189 
avg_icnt2mem_latency = 8 
avg_mrq_latency = 65 
avg_icnt2sh_latency = 23 
mrq_lat_table:28 	1 	6 	11 	25 	50 	128 	19 	0 	0 	0 	0 	0 	0 	0 	0 	0 	0 	0 	0 	0 	0 	0 	0 	0 	0 	0 	0 	0 	0 	0 	0 	
dq_lat_table:0 	0 	0 	0 	0 	0 	0 	0 	0 	0 	0 	0 	0 	0 	0 	0 	0 	0 	0 	0 	0 	0 	0 	0 	0 	0 	0 	0 	0 	0 	0 	0 	
mf_lat_table:0 	0 	0 	0 	0 	0 	0 	265 	123 	0 	0 	0 	0 	0 	0 	0 	0 	0 	0 	0 	0 	0 	0 	0 	0 	0 	0 	0 	0 	0 	0 	0 	
icnt2mem_lat_table:0 	0 	308 	124 	0 	0 	0 	0 	0 	0 	0 	0 	0 	0 	0 	0 	0 	0 	0 	0 	0 	0 	0 	0 	
icnt2sh_lat_table:0 	0 	144 	46 	86 	112 	0 	0 	0 	0 	0 	0 	0 	0 	0 	0 	0 	0 	0 	0 	0 	0 	0 	0 	
mf_lat_pw_table:0 	0 	0 	0 	0 	0 	0 	3 	1 	0 	0 	0 	0 	0 	0 	0 	0 	0 	0 	0 	0 	0 	0 	0 	0 	0 	0 	0 	0 	0 	0 	0 	
maximum concurrent accesses to same row:
dram[0]:         1         0         0         0         0         0         0         0         0         0         0         0         0         0         0         0 
dram[1]:         0         0         0         0         0         0         0         0         0         0         0         0         0         0         0         0 
dram[2]:         0         0         0         0         0         0         0         0         0         0         0         0         0         0         0         0 
dram[3]:         1         1         0         0         0         0         0         0         0         0         0         0         0         0         0         0 
dram[4]:         1         1         0         0         0         0         0         0         0         0         0         0         0         0         0         0 
dram[5]:         1         1         0         0         0         0         0         0         0         0         0         0         0         0         0         0 
dram[6]:         1         1         0         0         0         0         0         0         0         0         0         0         0         0         0         0 
dram[7]:         1         1         0         0         0         0         0         0         0         0         0         0         0         0         0         0 
maximum service time to same row:
dram[0]:      4483      4847         0         0         0         0         0         0         0         0         0         0         0         0         0         0 
dram[1]:      4857      4850         0         0         0         0         0         0         0         0         0         0         0         0         0         0 
dram[2]:      4861      4854         0         0         0         0         0         0         0         0         0         0         0         0         0         0 
dram[3]:      4636      4325         0         0         0         0         0         0         0         0         0         0         0         0         0         0 
dram[4]:      3875      3387         0         0         0         0         0         0         0         0         0         0         0         0         0         0 
dram[5]:      2790      2452         0         0         0         0         0         0         0         0         0         0         0         0         0         0 
dram[6]:      2836      3258         0         0         0         0         0         0         0         0         0         0         0         0         0         0 
dram[7]:      3632      4016         0         0         0         0         0         0         0         0         0         0         0         0         0         0 
average row accesses per activate:
dram[0]:  9.000000 16.000000      -nan      -nan      -nan      -nan      -nan      -nan      -nan      -nan      -nan      -nan      -nan      -nan      -nan      -nan 
dram[1]: 16.000000 16.000000      -nan      -nan      -nan      -nan      -nan      -nan      -nan      -nan      -nan      -nan      -nan      -nan      -nan      -nan 
dram[2]: 16.000000 16.000000      -nan      -nan      -nan      -nan      -nan      -nan      -nan      -nan      -nan      -nan      -nan      -nan      -nan      -nan 
dram[3]:  8.500000  8.500000      -nan      -nan      -nan      -nan      -nan      -nan      -nan      -nan      -nan      -nan      -nan      -nan      -nan      -nan 
dram[4]:  8.500000  8.500000      -nan      -nan      -nan      -nan      -nan      -nan      -nan      -nan      -nan      -nan      -nan      -nan      -nan      -nan 
dram[5]:  8.500000  8.500000      -nan      -nan      -nan      -nan      -nan      -nan      -nan      -nan      -nan      -nan      -nan      -nan      -nan      -nan 
dram[6]:  8.500000  8.500000      -nan      -nan      -nan      -nan      -nan      -nan      -nan      -nan      -nan      -nan      -nan      -nan      -nan      -nan 
dram[7]:  8.500000  8.500000      -nan      -nan      -nan      -nan      -nan      -nan      -nan      -nan      -nan      -nan      -nan      -nan      -nan      -nan 
average row locality = 268/27 = 9.925926
number of total memory accesses made:
dram[0]:         0         0         0         0         0         0         0         0         0         0         0         0         0         0         0         0 
dram[1]:         0         0         0         0         0         0         0         0         0         0         0         0         0         0         0         0 
dram[2]:         0         0         0         0         0         0         0         0         0         0         0         0         0         0         0         0 
dram[3]:         0         0         0         0         0         0         0         0         0         0         0         0         0         0         0         0 
dram[4]:         0         0         0         0         0         0         0         0         0         0         0         0         0         0         0         0 
dram[5]:         0         0         0         0         0         0         0         0         0         0         0         0         0         0         0         0 
dram[6]:         0         0         0         0         0         0         0         0         0         0         0         0         0         0         0         0 
dram[7]:         0         0         0         0         0         0         0         0         0         0         0         0         0         0         0         0 
total accesses: 0
min_bank_accesses = 0!
min_chip_accesses = 0!
number of total read accesses:
dram[0]:        40        32         0         0         0         0         0         0         0         0         0         0         0         0         0         0 
dram[1]:        32        32         0         0         0         0         0         0         0         0         0         0         0         0         0         0 
dram[2]:        32        32         0         0         0         0         0         0         0         0         0         0         0         0         0         0 
dram[3]:        36        36         0         0         0         0         0         0         0         0         0         0         0         0         0         0 
dram[4]:        36        36         0         0         0         0         0         0         0         0         0         0         0         0         0         0 
dram[5]:        36        36         0         0         0         0         0         0         0         0         0         0         0         0         0         0 
dram[6]:        36        36         0         0         0         0         0         0         0         0         0         0         0         0         0         0 
dram[7]:        36        36         0         0         0         0         0         0         0         0         0         0         0         0         0         0 
total dram reads = 560
min_bank_accesses = 0!
chip skew: 72/64 = 1.12
number of total write accesses:
dram[0]:        32        32         0         0         0         0         0         0         0         0         0         0         0         0         0         0 
dram[1]:        32        32         0         0         0         0         0         0         0         0         0         0         0         0         0         0 
dram[2]:        32        32         0         0         0         0         0         0         0         0         0         0         0         0         0         0 
dram[3]:        32        32         0         0         0         0         0         0         0         0         0         0         0         0         0         0 
dram[4]:        32        32         0         0         0         0         0         0         0         0         0         0         0         0         0         0 
dram[5]:        32        32         0         0         0         0         0         0         0         0         0         0         0         0         0         0 
dram[6]:        32        32         0         0         0         0         0         0         0         0         0         0         0         0         0         0 
dram[7]:        32        32         0         0         0         0         0         0         0         0         0         0         0         0         0         0 
total dram writes = 512
min_bank_accesses = 0!
chip skew: 64/64 = 1.00
average mf latency per bank:
dram[0]:         84        78    none      none      none      none      none      none      none      none      none      none      none      none      none      none  
dram[1]:         78        80    none      none      none      none      none      none      none      none      none      none      none      none      none      none  
dram[2]:         78        80    none      none      none      none      none      none      none      none      none      none      none      none      none      none  
dram[3]:         74        76    none      none      none      none      none      none      none      none      none      none      none      none      none      none  
dram[4]:         75        78    none      none      none      none      none      none      none      none      none      none      none      none      none      none  
dram[5]:         74        76    none      none      none      none      none      none      none      none      none      none      none      none      none      none  
dram[6]:         75        78    none      none      none      none      none      none      none      none      none      none      none      none      none      none  
dram[7]:         75        77    none      none      none      none      none      none      none      none      none      none      none      none      none      none  
maximum mf latency per bank:
dram[0]:        388       373         0         0         0         0         0         0         0         0         0         0         0         0         0         0
dram[1]:        369       374         0         0         0         0         0         0         0         0         0         0         0         0         0         0
dram[2]:        370       384         0         0         0         0         0         0         0         0         0         0         0         0         0         0
dram[3]:        377       381         0         0         0         0         0         0         0         0         0         0         0         0         0         0
dram[4]:        373       395         0         0         0         0         0         0         0         0         0         0         0         0         0         0
dram[5]:        380       385         0         0         0         0         0         0         0         0         0         0         0         0         0         0
dram[6]:        373       393         0         0         0         0         0         0         0         0         0         0         0         0         0         0
dram[7]:        380       385         0         0         0         0         0         0         0         0         0         0         0         0         0         0
Memory Partition 0: 
Cache L2_bank_000:
MSHR contents

Cache L2_bank_001:
MSHR contents

In Dram Latency Queue (total = 0): 
DRAM[0]: 16 bks, busW=4 BL=8 CL=12, tRRD=6 tCCD=2, tRCD=12 tRAS=28 tRP=12 tRC=40
n_cmd=8736 n_nop=8594 n_act=4 n_pre=2 n_ref_event=0 n_req=34 n_rd=8 n_rd_L2_A=64 n_write=64 n_wr_bk=0 bw_util=0.03114
n_activity=527 dram_eff=0.5161
bk0: 40a 8292i bk1: 32a 8362i bk2: 0a 8735i bk3: 0a 8736i bk4: 0a 8736i bk5: 0a 8736i bk6: 0a 8736i bk7: 0a 8736i bk8: 0a 8736i bk9: 0a 8736i bk10: 0a 8736i bk11: 0a 8736i bk12: 0a 8736i bk13: 0a 8736i bk14: 0a 8736i bk15: 0a 8737i 

------------------------------------------------------------------------

Row_Buffer_Locality = 0.911765
Row_Buffer_Locality_read = 0.944444
Row_Buffer_Locality_write = 0.875000
Bank_Level_Parallism = 1.795359
Bank_Level_Parallism_Col = 1.793028
Bank_Level_Parallism_Ready = 1.408759
write_to_read_ratio_blp_rw_average = 0.471678
GrpLevelPara = 1.000000 

BW Util details:
bwutil = 0.031136 
total_CMD = 8736 
util_bw = 272 
Wasted_Col = 193 
Wasted_Row = 12 
Idle = 8259 

BW Util Bottlenecks: 
RCDc_limit = 24 
RCDWRc_limit = 8 
WTRc_limit = 144 
RTWc_limit = 150 
CCDLc_limit = 0 
rwq = 0 
CCDLc_limit_alone = 0 
WTRc_limit_alone = 144 
RTWc_limit_alone = 150 

Commands details: 
total_CMD = 8736 
n_nop = 8594 
Read = 8 
Write = 64 
L2_Alloc = 64 
L2_WB = 0 
n_act = 4 
n_pre = 2 
n_ref = 0 
n_req = 34 
total_req = 136 

Dual Bus Interface Util: 
issued_total_row = 6 
issued_total_col = 136 
Row_Bus_Util =  0.000687 
CoL_Bus_Util = 0.015568 
Either_Row_CoL_Bus_Util = 0.016255 
Issued_on_Two_Bus_Simul_Util = 0.000000 
issued_two_Eff = 0.000000 
queue_avg = 0.420215 


dram_util_bins: 0 0 0 0 0 0 0 0 0 0
dram_eff_bins: 0 0 0 0 0 0 0 0 0 0
mrqq: max=19 avg=0.420215
Memory Partition 1: 
Cache L2_bank_002:
MSHR contents

Cache L2_bank_003:
MSHR contents

In Dram Latency Queue (total = 0): 
DRAM[1]: 16 bks, busW=4 BL=8 CL=12, tRRD=6 tCCD=2, tRCD=12 tRAS=28 tRP=12 tRC=40
n_cmd=8736 n_nop=8606 n_act=2 n_pre=0 n_ref_event=0 n_req=32 n_rd=0 n_rd_L2_A=64 n_write=64 n_wr_bk=0 bw_util=0.0293
n_activity=419 dram_eff=0.611
bk0: 32a 8364i bk1: 32a 8344i bk2: 0a 8734i bk3: 0a 8736i bk4: 0a 8736i bk5: 0a 8736i bk6: 0a 8736i bk7: 0a 8736i bk8: 0a 8736i bk9: 0a 8736i bk10: 0a 8736i bk11: 0a 8736i bk12: 0a 8736i bk13: 0a 8736i bk14: 0a 8736i bk15: 0a 8737i 

------------------------------------------------------------------------

Row_Buffer_Locality = 0.937500
Row_Buffer_Locality_read = 1.000000
Row_Buffer_Locality_write = 0.875000
Bank_Level_Parallism = 1.950980
Bank_Level_Parallism_Col = 1.950860
Bank_Level_Parallism_Ready = 1.468750
write_to_read_ratio_blp_rw_average = 0.493857
GrpLevelPara = 1.000000 

BW Util details:
bwutil = 0.029304 
total_CMD = 8736 
util_bw = 256 
Wasted_Col = 153 
Wasted_Row = 0 
Idle = 8327 

BW Util Bottlenecks: 
RCDc_limit = 0 
RCDWRc_limit = 11 
WTRc_limit = 148 
RTWc_limit = 140 
CCDLc_limit = 0 
rwq = 0 
CCDLc_limit_alone = 0 
WTRc_limit_alone = 148 
RTWc_limit_alone = 140 

Commands details: 
total_CMD = 8736 
n_nop = 8606 
Read = 0 
Write = 64 
L2_Alloc = 64 
L2_WB = 0 
n_act = 2 
n_pre = 0 
n_ref = 0 
n_req = 32 
total_req = 128 

Dual Bus Interface Util: 
issued_total_row = 2 
issued_total_col = 128 
Row_Bus_Util =  0.000229 
CoL_Bus_Util = 0.014652 
Either_Row_CoL_Bus_Util = 0.014881 
Issued_on_Two_Bus_Simul_Util = 0.000000 
issued_two_Eff = 0.000000 
queue_avg = 0.408082 


dram_util_bins: 0 0 0 0 0 0 0 0 0 0
dram_eff_bins: 0 0 0 0 0 0 0 0 0 0
mrqq: max=18 avg=0.408082
Memory Partition 2: 
Cache L2_bank_004:
MSHR contents

Cache L2_bank_005:
MSHR contents

In Dram Latency Queue (total = 0): 
DRAM[2]: 16 bks, busW=4 BL=8 CL=12, tRRD=6 tCCD=2, tRCD=12 tRAS=28 tRP=12 tRC=40
n_cmd=8736 n_nop=8606 n_act=2 n_pre=0 n_ref_event=0 n_req=32 n_rd=0 n_rd_L2_A=64 n_write=64 n_wr_bk=0 bw_util=0.0293
n_activity=419 dram_eff=0.611
bk0: 32a 8364i bk1: 32a 8344i bk2: 0a 8734i bk3: 0a 8736i bk4: 0a 8736i bk5: 0a 8736i bk6: 0a 8736i bk7: 0a 8736i bk8: 0a 8736i bk9: 0a 8736i bk10: 0a 8736i bk11: 0a 8736i bk12: 0a 8736i bk13: 0a 8736i bk14: 0a 8736i bk15: 0a 8737i 

------------------------------------------------------------------------

Row_Buffer_Locality = 0.937500
Row_Buffer_Locality_read = 1.000000
Row_Buffer_Locality_write = 0.875000
Bank_Level_Parallism = 1.950980
Bank_Level_Parallism_Col = 1.950860
Bank_Level_Parallism_Ready = 1.468750
write_to_read_ratio_blp_rw_average = 0.493857
GrpLevelPara = 1.000000 

BW Util details:
bwutil = 0.029304 
total_CMD = 8736 
util_bw = 256 
Wasted_Col = 153 
Wasted_Row = 0 
Idle = 8327 

BW Util Bottlenecks: 
RCDc_limit = 0 
RCDWRc_limit = 11 
WTRc_limit = 148 
RTWc_limit = 140 
CCDLc_limit = 0 
rwq = 0 
CCDLc_limit_alone = 0 
WTRc_limit_alone = 148 
RTWc_limit_alone = 140 

Commands details: 
total_CMD = 8736 
n_nop = 8606 
Read = 0 
Write = 64 
L2_Alloc = 64 
L2_WB = 0 
n_act = 2 
n_pre = 0 
n_ref = 0 
n_req = 32 
total_req = 128 

Dual Bus Interface Util: 
issued_total_row = 2 
issued_total_col = 128 
Row_Bus_Util =  0.000229 
CoL_Bus_Util = 0.014652 
Either_Row_CoL_Bus_Util = 0.014881 
Issued_on_Two_Bus_Simul_Util = 0.000000 
issued_two_Eff = 0.000000 
queue_avg = 0.391255 


dram_util_bins: 0 0 0 0 0 0 0 0 0 0
dram_eff_bins: 0 0 0 0 0 0 0 0 0 0
mrqq: max=18 avg=0.391255
Memory Partition 3: 
Cache L2_bank_006:
MSHR contents
MSHR: tag=0xc0007b00, atomic=0 1 entries : 0x7f10547fffd0 :  mf: uid= 11879, sid02:w27, part=3, addr=0xc0007b00, load , size=128, unknown  status = IN_PARTITION_L2_FILL_QUEUE (5105), 

Cache L2_bank_007:
MSHR contents
MSHR: tag=0xc0005b80, atomic=0 1 entries : 0x7f1056215190 :  mf: uid= 11880, sid01:w27, part=3, addr=0xc0005b80, load , size=128, unknown  status = IN_PARTITION_DRAM (5102), 

In Dram Latency Queue (total = 0): 
DRAM[3]: 16 bks, busW=4 BL=8 CL=12, tRRD=6 tCCD=2, tRCD=12 tRAS=28 tRP=12 tRC=40
n_cmd=8736 n_nop=8594 n_act=4 n_pre=2 n_ref_event=0 n_req=34 n_rd=8 n_rd_L2_A=64 n_write=64 n_wr_bk=0 bw_util=0.03114
n_activity=505 dram_eff=0.5386
bk0: 36a 8334i bk1: 36a 8314i bk2: 0a 8733i bk3: 0a 8736i bk4: 0a 8736i bk5: 0a 8736i bk6: 0a 8736i bk7: 0a 8736i bk8: 0a 8736i bk9: 0a 8736i bk10: 0a 8736i bk11: 0a 8736i bk12: 0a 8736i bk13: 0a 8736i bk14: 0a 8736i bk15: 0a 8737i 

------------------------------------------------------------------------

Row_Buffer_Locality = 0.882353
Row_Buffer_Locality_read = 0.888889
Row_Buffer_Locality_write = 0.875000
Bank_Level_Parallism = 1.873362
Bank_Level_Parallism_Col = 1.875566
Bank_Level_Parallism_Ready = 1.437956
write_to_read_ratio_blp_rw_average = 0.454751
GrpLevelPara = 1.000000 

BW Util details:
bwutil = 0.031136 
total_CMD = 8736 
util_bw = 272 
Wasted_Col = 176 
Wasted_Row = 13 
Idle = 8275 

BW Util Bottlenecks: 
RCDc_limit = 24 
RCDWRc_limit = 10 
WTRc_limit = 146 
RTWc_limit = 140 
CCDLc_limit = 0 
rwq = 0 
CCDLc_limit_alone = 0 
WTRc_limit_alone = 146 
RTWc_limit_alone = 140 

Commands details: 
total_CMD = 8736 
n_nop = 8594 
Read = 8 
Write = 64 
L2_Alloc = 64 
L2_WB = 0 
n_act = 4 
n_pre = 2 
n_ref = 0 
n_req = 34 
total_req = 136 

Dual Bus Interface Util: 
issued_total_row = 6 
issued_total_col = 136 
Row_Bus_Util =  0.000687 
CoL_Bus_Util = 0.015568 
Either_Row_CoL_Bus_Util = 0.016255 
Issued_on_Two_Bus_Simul_Util = 0.000000 
issued_two_Eff = 0.000000 
queue_avg = 0.455815 


dram_util_bins: 0 0 0 0 0 0 0 0 0 0
dram_eff_bins: 0 0 0 0 0 0 0 0 0 0
mrqq: max=19 avg=0.455815
Memory Partition 4: 
Cache L2_bank_008:
MSHR contents
MSHR: tag=0xc0005c00, atomic=0 1 entries : 0x7f1056701930 :  mf: uid= 11887, sid00:w28, part=4, addr=0xc0005c00, load , size=128, unknown  status = IN_PARTITION_DRAM (5101), 

Cache L2_bank_009:
MSHR contents
MSHR: tag=0xc0005c80, atomic=0 1 entries : 0x7f105478bf70 :  mf: uid= 11868, sid01:w28, part=4, addr=0xc0005c80, load , size=128, unknown  status = IN_PARTITION_DRAM (5105), 

In Dram Latency Queue (total = 0): 
DRAM[4]: 16 bks, busW=4 BL=8 CL=12, tRRD=6 tCCD=2, tRCD=12 tRAS=28 tRP=12 tRC=40
n_cmd=8736 n_nop=8595 n_act=4 n_pre=2 n_ref_event=0 n_req=34 n_rd=8 n_rd_L2_A=63 n_write=64 n_wr_bk=0 bw_util=0.03091
n_activity=499 dram_eff=0.5411
bk0: 36a 8334i bk1: 35a 8314i bk2: 0a 8733i bk3: 0a 8736i bk4: 0a 8736i bk5: 0a 8736i bk6: 0a 8736i bk7: 0a 8736i bk8: 0a 8736i bk9: 0a 8736i bk10: 0a 8736i bk11: 0a 8736i bk12: 0a 8736i bk13: 0a 8736i bk14: 0a 8736i bk15: 0a 8737i 

------------------------------------------------------------------------

Row_Buffer_Locality = 0.882353
Row_Buffer_Locality_read = 0.888889
Row_Buffer_Locality_write = 0.875000
Bank_Level_Parallism = 1.875273
Bank_Level_Parallism_Col = 1.877551
Bank_Level_Parallism_Ready = 1.441176
write_to_read_ratio_blp_rw_average = 0.455782
GrpLevelPara = 1.000000 

BW Util details:
bwutil = 0.030907 
total_CMD = 8736 
util_bw = 270 
Wasted_Col = 176 
Wasted_Row = 13 
Idle = 8277 

BW Util Bottlenecks: 
RCDc_limit = 24 
RCDWRc_limit = 10 
WTRc_limit = 146 
RTWc_limit = 140 
CCDLc_limit = 0 
rwq = 0 
CCDLc_limit_alone = 0 
WTRc_limit_alone = 146 
RTWc_limit_alone = 140 

Commands details: 
total_CMD = 8736 
n_nop = 8595 
Read = 8 
Write = 64 
L2_Alloc = 63 
L2_WB = 0 
n_act = 4 
n_pre = 2 
n_ref = 0 
n_req = 34 
total_req = 135 

Dual Bus Interface Util: 
issued_total_row = 6 
issued_total_col = 135 
Row_Bus_Util =  0.000687 
CoL_Bus_Util = 0.015453 
Either_Row_CoL_Bus_Util = 0.016140 
Issued_on_Two_Bus_Simul_Util = 0.000000 
issued_two_Eff = 0.000000 
queue_avg = 0.452610 


dram_util_bins: 0 0 0 0 0 0 0 0 0 0
dram_eff_bins: 0 0 0 0 0 0 0 0 0 0
mrqq: max=19 avg=0.45261
Memory Partition 5: 
Cache L2_bank_010:
MSHR contents
MSHR: tag=0xc0007d00, atomic=0 1 entries : 0x7f1055082aa0 :  mf: uid= 11884, sid02:w29, part=5, addr=0xc0007d00, load , size=128, unknown  status = IN_PARTITION_DRAM (5104), 

Cache L2_bank_011:
MSHR contents
MSHR: tag=0xc0005d80, atomic=0 1 entries : 0x7f105484e4c0 :  mf: uid= 11883, sid01:w29, part=5, addr=0xc0005d80, load , size=128, unknown  status = IN_PARTITION_DRAM (5105), 

In Dram Latency Queue (total = 0): 
DRAM[5]: 16 bks, busW=4 BL=8 CL=12, tRRD=6 tCCD=2, tRCD=12 tRAS=28 tRP=12 tRC=40
n_cmd=8736 n_nop=8597 n_act=4 n_pre=2 n_ref_event=0 n_req=34 n_rd=8 n_rd_L2_A=61 n_write=64 n_wr_bk=0 bw_util=0.03045
n_activity=494 dram_eff=0.5385
bk0: 36a 8334i bk1: 33a 8319i bk2: 0a 8733i bk3: 0a 8736i bk4: 0a 8736i bk5: 0a 8736i bk6: 0a 8736i bk7: 0a 8736i bk8: 0a 8736i bk9: 0a 8736i bk10: 0a 8736i bk11: 0a 8736i bk12: 0a 8736i bk13: 0a 8736i bk14: 0a 8736i bk15: 0a 8737i 

------------------------------------------------------------------------

Row_Buffer_Locality = 0.882353
Row_Buffer_Locality_read = 0.888889
Row_Buffer_Locality_write = 0.875000
Bank_Level_Parallism = 1.884956
Bank_Level_Parallism_Col = 1.887615
Bank_Level_Parallism_Ready = 1.447761
write_to_read_ratio_blp_rw_average = 0.461009
GrpLevelPara = 1.000000 

BW Util details:
bwutil = 0.030449 
total_CMD = 8736 
util_bw = 265 
Wasted_Col = 176 
Wasted_Row = 13 
Idle = 8282 

BW Util Bottlenecks: 
RCDc_limit = 24 
RCDWRc_limit = 10 
WTRc_limit = 146 
RTWc_limit = 140 
CCDLc_limit = 0 
rwq = 0 
CCDLc_limit_alone = 0 
WTRc_limit_alone = 146 
RTWc_limit_alone = 140 

Commands details: 
total_CMD = 8736 
n_nop = 8597 
Read = 8 
Write = 64 
L2_Alloc = 61 
L2_WB = 0 
n_act = 4 
n_pre = 2 
n_ref = 0 
n_req = 34 
total_req = 133 

Dual Bus Interface Util: 
issued_total_row = 6 
issued_total_col = 133 
Row_Bus_Util =  0.000687 
CoL_Bus_Util = 0.015224 
Either_Row_CoL_Bus_Util = 0.015911 
Issued_on_Two_Bus_Simul_Util = 0.000000 
issued_two_Eff = 0.000000 
queue_avg = 0.424565 


dram_util_bins: 0 0 0 0 0 0 0 0 0 0
dram_eff_bins: 0 0 0 0 0 0 0 0 0 0
mrqq: max=20 avg=0.424565
Memory Partition 6: 
Cache L2_bank_012:
MSHR contents
MSHR: tag=0xc0005e00, atomic=0 1 entries : 0x7f1055ede860 :  mf: uid= 11889, sid00:w30, part=6, addr=0xc0005e00, load , size=128, unknown  status = IN_PARTITION_DRAM (5104), 

Cache L2_bank_013:
MSHR contents
MSHR: tag=0xc0005e80, atomic=0 1 entries : 0x7f1055069ac0 :  mf: uid= 11878, sid01:w30, part=6, addr=0xc0005e80, load , size=128, unknown  status = IN_PARTITION_DRAM (5105), 

In Dram Latency Queue (total = 0): 
DRAM[6]: 16 bks, busW=4 BL=8 CL=12, tRRD=6 tCCD=2, tRCD=12 tRAS=28 tRP=12 tRC=40
n_cmd=8736 n_nop=8597 n_act=4 n_pre=2 n_ref_event=0 n_req=34 n_rd=8 n_rd_L2_A=61 n_write=64 n_wr_bk=0 bw_util=0.03045
n_activity=494 dram_eff=0.5385
bk0: 36a 8334i bk1: 33a 8319i bk2: 0a 8733i bk3: 0a 8736i bk4: 0a 8736i bk5: 0a 8736i bk6: 0a 8736i bk7: 0a 8736i bk8: 0a 8736i bk9: 0a 8736i bk10: 0a 8736i bk11: 0a 8736i bk12: 0a 8736i bk13: 0a 8736i bk14: 0a 8736i bk15: 0a 8737i 

------------------------------------------------------------------------

Row_Buffer_Locality = 0.882353
Row_Buffer_Locality_read = 0.888889
Row_Buffer_Locality_write = 0.875000
Bank_Level_Parallism = 1.884956
Bank_Level_Parallism_Col = 1.887615
Bank_Level_Parallism_Ready = 1.447761
write_to_read_ratio_blp_rw_average = 0.461009
GrpLevelPara = 1.000000 

BW Util details:
bwutil = 0.030449 
total_CMD = 8736 
util_bw = 265 
Wasted_Col = 176 
Wasted_Row = 13 
Idle = 8282 

BW Util Bottlenecks: 
RCDc_limit = 24 
RCDWRc_limit = 10 
WTRc_limit = 146 
RTWc_limit = 140 
CCDLc_limit = 0 
rwq = 0 
CCDLc_limit_alone = 0 
WTRc_limit_alone = 146 
RTWc_limit_alone = 140 

Commands details: 
total_CMD = 8736 
n_nop = 8597 
Read = 8 
Write = 64 
L2_Alloc = 61 
L2_WB = 0 
n_act = 4 
n_pre = 2 
n_ref = 0 
n_req = 34 
total_req = 133 

Dual Bus Interface Util: 
issued_total_row = 6 
issued_total_col = 133 
Row_Bus_Util =  0.000687 
CoL_Bus_Util = 0.015224 
Either_Row_CoL_Bus_Util = 0.015911 
Issued_on_Two_Bus_Simul_Util = 0.000000 
issued_two_Eff = 0.000000 
queue_avg = 0.457647 


dram_util_bins: 0 0 0 0 0 0 0 0 0 0
dram_eff_bins: 0 0 0 0 0 0 0 0 0 0
mrqq: max=19 avg=0.457647
Memory Partition 7: 
Cache L2_bank_014:
MSHR contents
MSHR: tag=0xc0007f00, atomic=0 1 entries : 0x7f1055ef5b10 :  mf: uid= 11888, sid02:w31, part=7, addr=0xc0007f00, load , size=128, unknown  status = IN_PARTITION_DRAM (5105), 

Cache L2_bank_015:
MSHR contents
MSHR: tag=0xc0005f80, atomic=0 1 entries : 0x7f10546405d0 :  mf: uid= 11886, sid01:w31, part=7, addr=0xc0005f80, load , size=128, unknown  status = IN_PARTITION_DRAM (5104), 

In Dram Latency Queue (total = 0): 
DRAM[7]: 16 bks, busW=4 BL=8 CL=12, tRRD=6 tCCD=2, tRCD=12 tRAS=28 tRP=12 tRC=40
n_cmd=8736 n_nop=8600 n_act=4 n_pre=2 n_ref_event=0 n_req=34 n_rd=8 n_rd_L2_A=58 n_write=64 n_wr_bk=0 bw_util=0.02976
n_activity=487 dram_eff=0.5339
bk0: 34a 8337i bk1: 32a 8326i bk2: 0a 8733i bk3: 0a 8736i bk4: 0a 8736i bk5: 0a 8736i bk6: 0a 8736i bk7: 0a 8736i bk8: 0a 8736i bk9: 0a 8736i bk10: 0a 8736i bk11: 0a 8736i bk12: 0a 8736i bk13: 0a 8736i bk14: 0a 8736i bk15: 0a 8737i 

------------------------------------------------------------------------

Row_Buffer_Locality = 0.882353
Row_Buffer_Locality_read = 0.888889
Row_Buffer_Locality_write = 0.875000
Bank_Level_Parallism = 1.889888
Bank_Level_Parallism_Col = 1.890698
Bank_Level_Parallism_Ready = 1.442748
write_to_read_ratio_blp_rw_average = 0.467442
GrpLevelPara = 1.000000 

BW Util details:
bwutil = 0.029762 
total_CMD = 8736 
util_bw = 259 
Wasted_Col = 176 
Wasted_Row = 12 
Idle = 8289 

BW Util Bottlenecks: 
RCDc_limit = 24 
RCDWRc_limit = 10 
WTRc_limit = 146 
RTWc_limit = 140 
CCDLc_limit = 0 
rwq = 0 
CCDLc_limit_alone = 0 
WTRc_limit_alone = 146 
RTWc_limit_alone = 140 

Commands details: 
total_CMD = 8736 
n_nop = 8600 
Read = 8 
Write = 64 
L2_Alloc = 58 
L2_WB = 0 
n_act = 4 
n_pre = 2 
n_ref = 0 
n_req = 34 
total_req = 130 

Dual Bus Interface Util: 
issued_total_row = 6 
issued_total_col = 130 
Row_Bus_Util =  0.000687 
CoL_Bus_Util = 0.014881 
Either_Row_CoL_Bus_Util = 0.015568 
Issued_on_Two_Bus_Simul_Util = 0.000000 
issued_two_Eff = 0.000000 
queue_avg = 0.422962 


dram_util_bins: 0 0 0 0 0 0 0 0 0 0
dram_eff_bins: 0 0 0 0 0 0 0 0 0 0
mrqq: max=20 avg=0.422962

========= L2 cache stats =========
L2_cache_bank[0]: Access = 32, Miss = 10, Miss_rate = 0.312, Pending_hits = 6, Reservation_fails = 0
L2_cache_bank[1]: Access = 24, Miss = 8, Miss_rate = 0.333, Pending_hits = 0, Reservation_fails = 0
L2_cache_bank[2]: Access = 24, Miss = 8, Miss_rate = 0.333, Pending_hits = 0, Reservation_fails = 0
L2_cache_bank[3]: Access = 24, Miss = 8, Miss_rate = 0.333, Pending_hits = 0, Reservation_fails = 0
L2_cache_bank[4]: Access = 24, Miss = 8, Miss_rate = 0.333, Pending_hits = 0, Reservation_fails = 0
L2_cache_bank[5]: Access = 24, Miss = 8, Miss_rate = 0.333, Pending_hits = 0, Reservation_fails = 0
L2_cache_bank[6]: Access = 28, Miss = 9, Miss_rate = 0.321, Pending_hits = 3, Reservation_fails = 0
L2_cache_bank[7]: Access = 28, Miss = 9, Miss_rate = 0.321, Pending_hits = 3, Reservation_fails = 0
L2_cache_bank[8]: Access = 28, Miss = 9, Miss_rate = 0.321, Pending_hits = 3, Reservation_fails = 0
L2_cache_bank[9]: Access = 28, Miss = 9, Miss_rate = 0.321, Pending_hits = 3, Reservation_fails = 0
L2_cache_bank[10]: Access = 28, Miss = 9, Miss_rate = 0.321, Pending_hits = 3, Reservation_fails = 0
L2_cache_bank[11]: Access = 28, Miss = 9, Miss_rate = 0.321, Pending_hits = 3, Reservation_fails = 0
L2_cache_bank[12]: Access = 28, Miss = 9, Miss_rate = 0.321, Pending_hits = 3, Reservation_fails = 0
L2_cache_bank[13]: Access = 28, Miss = 9, Miss_rate = 0.321, Pending_hits = 3, Reservation_fails = 0
L2_cache_bank[14]: Access = 28, Miss = 9, Miss_rate = 0.321, Pending_hits = 3, Reservation_fails = 0
L2_cache_bank[15]: Access = 28, Miss = 9, Miss_rate = 0.321, Pending_hits = 3, Reservation_fails = 0
L2_total_cache_accesses = 432
L2_total_cache_misses = 140
L2_total_cache_miss_rate = 0.3241
L2_total_cache_pending_hits = 36
L2_total_cache_reservation_fails = 0
L2_total_cache_breakdown:
	L2_cache_stats_breakdown[GLOBAL_ACC_R][HIT] = 256
	L2_cache_stats_breakdown[GLOBAL_ACC_R][HIT_RESERVED] = 0
	L2_cache_stats_breakdown[GLOBAL_ACC_R][MISS] = 0
	L2_cache_stats_breakdown[GLOBAL_ACC_R][RESERVATION_FAIL] = 0
	L2_cache_stats_breakdown[GLOBAL_ACC_R][SECTOR_MISS] = 0
	L2_cache_stats_breakdown[GLOBAL_ACC_R][MSHR_HIT] = 0
	L2_cache_stats_breakdown[LOCAL_ACC_R][HIT] = 0
	L2_cache_stats_breakdown[LOCAL_ACC_R][HIT_RESERVED] = 0
	L2_cache_stats_breakdown[LOCAL_ACC_R][MISS] = 0
	L2_cache_stats_breakdown[LOCAL_ACC_R][RESERVATION_FAIL] = 0
	L2_cache_stats_breakdown[LOCAL_ACC_R][SECTOR_MISS] = 0
	L2_cache_stats_breakdown[LOCAL_ACC_R][MSHR_HIT] = 0
	L2_cache_stats_breakdown[CONST_ACC_R][HIT] = 0
	L2_cache_stats_breakdown[CONST_ACC_R][HIT_RESERVED] = 3
	L2_cache_stats_breakdown[CONST_ACC_R][MISS] = 1
	L2_cache_stats_breakdown[CONST_ACC_R][RESERVATION_FAIL] = 0
	L2_cache_stats_breakdown[CONST_ACC_R][SECTOR_MISS] = 0
	L2_cache_stats_breakdown[CONST_ACC_R][MSHR_HIT] = 3
	L2_cache_stats_breakdown[TEXTURE_ACC_R][HIT] = 0
	L2_cache_stats_breakdown[TEXTURE_ACC_R][HIT_RESERVED] = 0
	L2_cache_stats_breakdown[TEXTURE_ACC_R][MISS] = 0
	L2_cache_stats_breakdown[TEXTURE_ACC_R][RESERVATION_FAIL] = 0
	L2_cache_stats_breakdown[TEXTURE_ACC_R][SECTOR_MISS] = 0
	L2_cache_stats_breakdown[TEXTURE_ACC_R][MSHR_HIT] = 0
	L2_cache_stats_breakdown[GLOBAL_ACC_W][HIT] = 0
	L2_cache_stats_breakdown[GLOBAL_ACC_W][HIT_RESERVED] = 0
	L2_cache_stats_breakdown[GLOBAL_ACC_W][MISS] = 128
	L2_cache_stats_breakdown[GLOBAL_ACC_W][RESERVATION_FAIL] = 0
	L2_cache_stats_breakdown[GLOBAL_ACC_W][SECTOR_MISS] = 0
	L2_cache_stats_breakdown[GLOBAL_ACC_W][MSHR_HIT] = 0
	L2_cache_stats_breakdown[LOCAL_ACC_W][HIT] = 0
	L2_cache_stats_breakdown[LOCAL_ACC_W][HIT_RESERVED] = 0
	L2_cache_stats_breakdown[LOCAL_ACC_W][MISS] = 0
	L2_cache_stats_breakdown[LOCAL_ACC_W][RESERVATION_FAIL] = 0
	L2_cache_stats_breakdown[LOCAL_ACC_W][SECTOR_MISS] = 0
	L2_cache_stats_breakdown[LOCAL_ACC_W][MSHR_HIT] = 0
	L2_cache_stats_breakdown[L1_WRBK_ACC][HIT] = 0
	L2_cache_stats_breakdown[L1_WRBK_ACC][HIT_RESERVED] = 0
	L2_cache_stats_breakdown[L1_WRBK_ACC][MISS] = 0
	L2_cache_stats_breakdown[L1_WRBK_ACC][RESERVATION_FAIL] = 0
	L2_cache_stats_breakdown[L1_WRBK_ACC][SECTOR_MISS] = 0
	L2_cache_stats_breakdown[L1_WRBK_ACC][MSHR_HIT] = 0
	L2_cache_stats_breakdown[L2_WRBK_ACC][HIT] = 0
	L2_cache_stats_breakdown[L2_WRBK_ACC][HIT_RESERVED] = 0
	L2_cache_stats_breakdown[L2_WRBK_ACC][MISS] = 0
	L2_cache_stats_breakdown[L2_WRBK_ACC][RESERVATION_FAIL] = 0
	L2_cache_stats_breakdown[L2_WRBK_ACC][SECTOR_MISS] = 0
	L2_cache_stats_breakdown[L2_WRBK_ACC][MSHR_HIT] = 0
	L2_cache_stats_breakdown[INST_ACC_R][HIT] = 0
	L2_cache_stats_breakdown[INST_ACC_R][HIT_RESERVED] = 33
	L2_cache_stats_breakdown[INST_ACC_R][MISS] = 11
	L2_cache_stats_breakdown[INST_ACC_R][RESERVATION_FAIL] = 0
	L2_cache_stats_breakdown[INST_ACC_R][SECTOR_MISS] = 0
	L2_cache_stats_breakdown[INST_ACC_R][MSHR_HIT] = 33
	L2_cache_stats_breakdown[L1_WR_ALLOC_R][HIT] = 0
	L2_cache_stats_breakdown[L1_WR_ALLOC_R][HIT_RESERVED] = 0
	L2_cache_stats_breakdown[L1_WR_ALLOC_R][MISS] = 0
	L2_cache_stats_breakdown[L1_WR_ALLOC_R][RESERVATION_FAIL] = 0
	L2_cache_stats_breakdown[L1_WR_ALLOC_R][SECTOR_MISS] = 0
	L2_cache_stats_breakdown[L1_WR_ALLOC_R][MSHR_HIT] = 0
	L2_cache_stats_breakdown[L2_WR_ALLOC_R][HIT] = 0
	L2_cache_stats_breakdown[L2_WR_ALLOC_R][HIT_RESERVED] = 0
	L2_cache_stats_breakdown[L2_WR_ALLOC_R][MISS] = 0
	L2_cache_stats_breakdown[L2_WR_ALLOC_R][RESERVATION_FAIL] = 0
	L2_cache_stats_breakdown[L2_WR_ALLOC_R][SECTOR_MISS] = 0
	L2_cache_stats_breakdown[L2_WR_ALLOC_R][MSHR_HIT] = 0
	L2_cache_stats_breakdown[GLOBAL_ACC_R][TOTAL_ACCESS] = 256
	L2_cache_stats_breakdown[CONST_ACC_R][TOTAL_ACCESS] = 4
	L2_cache_stats_breakdown[GLOBAL_ACC_W][TOTAL_ACCESS] = 128
	L2_cache_stats_breakdown[INST_ACC_R][TOTAL_ACCESS] = 44
L2_total_cache_reservation_fail_breakdown:
L2_cache_data_port_util = 0.013
L2_cache_fill_port_util = 0.006

icnt_total_pkts_mem_to_simt=1640
icnt_total_pkts_simt_to_mem=944
LD_mem_lat_dist  0 0 0 0 0 0 0 0 0 0 0 0 0 0 0 0 0 0 0 0 0 0 0 0 0 0 0
ST_mem_lat_dist  0 0 0 0 0 0 0 0 0 0 0 0 0 0 0 0 0 0 0 0 0 0 0 0 0 0 0
----------------------------Interconnect-DETAILS--------------------------------
Class 0:
Packet latency average = 22.0058
	minimum = 6
	maximum = 98
Network latency average = 17.9792
	minimum = 6
	maximum = 91
Slowest packet = 232
Flit latency average = 19.5604
	minimum = 6
	maximum = 87
Slowest flit = 560
Fragmentation average = 0
	minimum = 0
	maximum = 0
Injected packet rate average = 0.00183634
	minimum = 0 (at node 4)
	maximum = 0.0114772 (at node 0)
Accepted packet rate average = 0.00183634
	minimum = 0 (at node 4)
	maximum = 0.0114772 (at node 0)
Injected flit rate average = 0.00549203
	minimum = 0 (at node 4)
	maximum = 0.0250797 (at node 0)
Accepted flit rate average= 0.00549203
	minimum = 0 (at node 4)
	maximum = 0.0435707 (at node 0)
Injected packet length average = 2.99074
Accepted packet length average = 2.99074
Total in-flight flits = 0 (0 measured)
====== Overall Traffic Statistics ======
====== Traffic class 0 ======
Packet latency average = 22.0058 (1 samples)
	minimum = 6 (1 samples)
	maximum = 98 (1 samples)
Network latency average = 17.9792 (1 samples)
	minimum = 6 (1 samples)
	maximum = 91 (1 samples)
Flit latency average = 19.5604 (1 samples)
	minimum = 6 (1 samples)
	maximum = 87 (1 samples)
Fragmentation average = 0 (1 samples)
	minimum = 0 (1 samples)
	maximum = 0 (1 samples)
Injected packet rate average = 0.00183634 (1 samples)
	minimum = 0 (1 samples)
	maximum = 0.0114772 (1 samples)
Accepted packet rate average = 0.00183634 (1 samples)
	minimum = 0 (1 samples)
	maximum = 0.0114772 (1 samples)
Injected flit rate average = 0.00549203 (1 samples)
	minimum = 0 (1 samples)
	maximum = 0.0250797 (1 samples)
Accepted flit rate average = 0.00549203 (1 samples)
	minimum = 0 (1 samples)
	maximum = 0.0435707 (1 samples)
Injected packet size average = 2.99074 (1 samples)
Accepted packet size average = 2.99074 (1 samples)
Hops average = 1 (1 samples)
----------------------------END-of-Interconnect-DETAILS-------------------------


gpgpu_simulation_time = 0 days, 0 hrs, 0 min, 1 sec (1 sec)
gpgpu_simulation_rate = 630784 (inst/sec)
gpgpu_simulation_rate = 5106 (cycle/sec)
gpgpu_silicon_slowdown = 314727x
GPGPU-Sim: detected inactive GPU simulation thread
Performance= 0.00 GFlop/s, Time= 1000.000 msec, Size= 262144 Ops, WorkgroupSize= 1024 threads/block
GPGPU-Sim: synchronize waiting for inactive GPU simulation
GPGPU-Sim API: Stream Manager State
GPGPU-Sim API:    stream 1 has 1 operations
GPGPU-Sim API:       0 :  stream operation memcpy device-to-host
GPGPU-Sim: detected inactive GPU simulation thread
Checking computed result for correctness: Result = PASS

NOTE: The CUDA Samples are not meant for performance measurements. Results may vary when GPU Boost is enabled.
GPGPU-Sim: *** exit detected ***
