GPGPU-Sim version 4.2.0 (build gpgpu-sim_git-commit-13c67115070dc2f0876254a790d0238073ca364a-modified_590.0) configured with AccelWattch.

----------------------------------------------------------------------------
INFO - If you only care about PTX execution, ignore this message. GPGPU-Sim supports PTX execution in modern CUDA.
If you want to run PTXPLUS (sm_1x SASS) with a modern card configuration - set the envronment variable
$PTXAS_CUDA_INSTALL_PATH to point a CUDA version compabible with your card configurations (i.e. 8+ for PASCAL, 9+ for VOLTA etc..)
For example: "export $PTXAS_CUDA_INSTALL_PATH=/usr/local/cuda-9.1"

The following text describes why:
If you are using PTXPLUS, only sm_1x is supported and it requires that the app and simulator binaries are compiled in CUDA 4.2 or less.
The simulator requires it since CUDA headers desribe struct sizes in the exec which change from gen to gen.
The apps require 4.2 because new versions of CUDA tools have dropped parsing support for generating sm_1x
When running using modern config (i.e. volta) and PTXPLUS with CUDA 4.2, the $PTXAS_CUDA_INSTALL_PATH env variable is required to get proper register usage
(and hence occupancy) using a version of CUDA that knows the register usage on the real card.

----------------------------------------------------------------------------
setup_environment succeeded


        *** GPGPU-Sim Simulator Version 4.2.0  [build gpgpu-sim_git-commit-13c67115070dc2f0876254a790d0238073ca364a_modified_0.0] ***


GPGPU-Sim PTX: simulation mode 0 (can change with PTX_SIM_MODE_FUNC environment variable:
               1=functional simulation only, 0=detailed performance simulator)
GPGPU-Sim PTX: overriding embedded ptx with ptx file (PTX_SIM_USE_PTX_FILE is set)
GPGPU-Sim: Configuration options:

-save_embedded_ptx                      0 # saves ptx files embedded in binary as <n>.ptx
-keep                                   0 # keep intermediate files created by GPGPU-Sim when interfacing with external programs
-gpgpu_ptx_save_converted_ptxplus                    0 # Saved converted ptxplus to a file
-gpgpu_occupancy_sm_number                   60 # The SM number to pass to ptxas when getting register usage for computing GPU occupancy. This parameter is required in the config.
-ptx_opcode_latency_int         4,13,4,5,145 # Opcode latencies for integers <ADD,MAX,MUL,MAD,DIV,SHFL>Default 1,1,19,25,145,32
-ptx_opcode_latency_fp          4,13,4,5,39 # Opcode latencies for single precision floating points <ADD,MAX,MUL,MAD,DIV>Default 1,1,1,1,30
-ptx_opcode_latency_dp         8,19,8,8,330 # Opcode latencies for double precision floating points <ADD,MAX,MUL,MAD,DIV>Default 8,8,8,8,335
-ptx_opcode_latency_sfu                    8 # Opcode latencies for SFU instructionsDefault 8
-ptx_opcode_latency_tesnor                   64 # Opcode latencies for Tensor instructionsDefault 64
-ptx_opcode_initiation_int            1,2,2,2,8 # Opcode initiation intervals for integers <ADD,MAX,MUL,MAD,DIV,SHFL>Default 1,1,4,4,32,4
-ptx_opcode_initiation_fp            1,2,1,1,4 # Opcode initiation intervals for single precision floating points <ADD,MAX,MUL,MAD,DIV>Default 1,1,1,1,5
-ptx_opcode_initiation_dp          1,2,1,1,130 # Opcode initiation intervals for double precision floating points <ADD,MAX,MUL,MAD,DIV>Default 8,8,8,8,130
-ptx_opcode_initiation_sfu                    8 # Opcode initiation intervals for sfu instructionsDefault 8
-ptx_opcode_initiation_tensor                   64 # Opcode initiation intervals for tensor instructionsDefault 64
-cdp_latency         7200,8000,100,12000,1600 # CDP API latency <cudaStreamCreateWithFlags, cudaGetParameterBufferV2_init_perWarp, cudaGetParameterBufferV2_perKernel, cudaLaunchDeviceV2_init_perWarp, cudaLaunchDevicV2_perKernel>Default 7200,8000,100,12000,1600
-network_mode                           1 # Interconnection network mode
-inter_config_file   config_fermi_islip.icnt # Interconnection network config file
-icnt_in_buffer_limit                   64 # in_buffer_limit
-icnt_out_buffer_limit                   64 # out_buffer_limit
-icnt_subnets                           2 # subnets
-icnt_arbiter_algo                      1 # arbiter_algo
-icnt_verbose                           0 # inct_verbose
-icnt_grant_cycles                      1 # grant_cycles
-gpgpu_ptx_use_cuobjdump                    1 # Use cuobjdump to extract ptx and sass from binaries
-gpgpu_experimental_lib_support                    0 # Try to extract code from cuda libraries [Broken because of unknown cudaGetExportTable]
-checkpoint_option                      0 #  checkpointing flag (0 = no checkpoint)
-checkpoint_kernel                      1 #  checkpointing during execution of which kernel (1- 1st kernel)
-checkpoint_CTA                         0 #  checkpointing after # of CTA (< less than total CTA)
-resume_option                          0 #  resume flag (0 = no resume)
-resume_kernel                          0 #  Resume from which kernel (1= 1st kernel)
-resume_CTA                             0 #  resume from which CTA 
-checkpoint_CTA_t                       0 #  resume from which CTA 
-checkpoint_insn_Y                      0 #  resume from which CTA 
-gpgpu_ptx_convert_to_ptxplus                    0 # Convert SASS (native ISA) to ptxplus and run ptxplus
-gpgpu_ptx_force_max_capability                   60 # Force maximum compute capability
-gpgpu_ptx_inst_debug_to_file                    0 # Dump executed instructions' debug information to file
-gpgpu_ptx_inst_debug_file       inst_debug.txt # Executed instructions' debug output file
-gpgpu_ptx_inst_debug_thread_uid                    1 # Thread UID for executed instructions' debug output
-gpgpu_simd_model                       1 # 1 = post-dominator
-gpgpu_shader_core_pipeline              2048:32 # shader core pipeline config, i.e., {<nthread>:<warpsize>}
-gpgpu_tex_cache:l1  N:16:128:24,L:R:m:N:L,F:128:4,128:2 # per-shader L1 texture cache  (READ-ONLY) config  {<nsets>:<bsize>:<assoc>,<rep>:<wr>:<alloc>:<wr_alloc>,<mshr>:<N>:<merge>,<mq>:<rf>}
-gpgpu_const_cache:l1 N:128:64:2,L:R:f:N:L,A:2:64,4 # per-shader L1 constant memory cache  (READ-ONLY) config  {<nsets>:<bsize>:<assoc>,<rep>:<wr>:<alloc>:<wr_alloc>,<mshr>:<N>:<merge>,<mq>} 
-gpgpu_cache:il1     N:8:128:4,L:R:f:N:L,A:2:48,4 # shader L1 instruction cache config  {<nsets>:<bsize>:<assoc>,<rep>:<wr>:<alloc>:<wr_alloc>,<mshr>:<N>:<merge>,<mq>} 
-gpgpu_cache:dl1     N:64:128:6,L:L:m:N:H,A:128:8,8 # per-shader L1 data cache config  {<nsets>:<bsize>:<assoc>,<rep>:<wr>:<alloc>:<wr_alloc>,<mshr>:<N>:<merge>,<mq> | none}
-gpgpu_l1_cache_write_ratio                    0 # L1D write ratio
-gpgpu_l1_banks                         1 # The number of L1 cache banks
-gpgpu_l1_banks_byte_interleaving                   32 # l1 banks byte interleaving granularity
-gpgpu_l1_banks_hashing_function                    0 # l1 banks hashing function
-gpgpu_l1_latency                       1 # L1 Hit Latency
-gpgpu_smem_latency                     3 # smem Latency
-gpgpu_cache:dl1PrefL1                 none # per-shader L1 data cache config  {<nsets>:<bsize>:<assoc>,<rep>:<wr>:<alloc>:<wr_alloc>,<mshr>:<N>:<merge>,<mq> | none}
-gpgpu_cache:dl1PrefShared                 none # per-shader L1 data cache config  {<nsets>:<bsize>:<assoc>,<rep>:<wr>:<alloc>:<wr_alloc>,<mshr>:<N>:<merge>,<mq> | none}
-gpgpu_gmem_skip_L1D                    1 # global memory access skip L1D cache (implements -Xptxas -dlcm=cg, default=no skip)
-gpgpu_perfect_mem                      0 # enable perfect memory mode (no cache miss)
-n_regfile_gating_group                    4 # group of lanes that should be read/written together)
-gpgpu_clock_gated_reg_file                    0 # enable clock gated reg file for power calculations
-gpgpu_clock_gated_lanes                    0 # enable clock gated lanes for power calculations
-gpgpu_shader_registers                65536 # Number of registers per shader core. Limits number of concurrent CTAs. (default 8192)
-gpgpu_registers_per_block                 8192 # Maximum number of registers per CTA. (default 8192)
-gpgpu_ignore_resources_limitation                    0 # gpgpu_ignore_resources_limitation (default 0)
-gpgpu_shader_cta                      32 # Maximum number of concurrent CTAs in shader (default 32)
-gpgpu_num_cta_barriers                   16 # Maximum number of named barriers per CTA (default 16)
-gpgpu_n_clusters                      20 # number of processing clusters
-gpgpu_n_cores_per_cluster                    1 # number of simd cores per cluster
-gpgpu_n_cluster_ejection_buffer_size                    8 # number of packets in ejection buffer
-gpgpu_n_ldst_response_buffer_size                    2 # number of response packets in ld/st unit ejection buffer
-gpgpu_shmem_per_block                49152 # Size of shared memory per thread block or CTA (default 48kB)
-gpgpu_shmem_size                   98304 # Size of shared memory per shader core (default 16kB)
-gpgpu_shmem_option                     0 # Option list of shared memory sizes
-gpgpu_unified_l1d_size                    0 # Size of unified data cache(L1D + shared memory) in KB
-gpgpu_adaptive_cache_config                    0 # adaptive_cache_config
-gpgpu_shmem_sizeDefault                16384 # Size of shared memory per shader core (default 16kB)
-gpgpu_shmem_size_PrefL1                16384 # Size of shared memory per shader core (default 16kB)
-gpgpu_shmem_size_PrefShared                16384 # Size of shared memory per shader core (default 16kB)
-gpgpu_shmem_num_banks                   32 # Number of banks in the shared memory in each shader core (default 16)
-gpgpu_shmem_limited_broadcast                    0 # Limit shared memory to do one broadcast per cycle (default on)
-gpgpu_shmem_warp_parts                    1 # Number of portions a warp is divided into for shared memory bank conflict check 
-gpgpu_mem_unit_ports                    1 # The number of memory transactions allowed per core cycle
-gpgpu_shmem_warp_parts                    1 # Number of portions a warp is divided into for shared memory bank conflict check 
-gpgpu_warpdistro_shader                   -1 # Specify which shader core to collect the warp size distribution from
-gpgpu_warp_issue_shader                    0 # Specify which shader core to collect the warp issue distribution from
-gpgpu_local_mem_map                    1 # Mapping from local memory space address to simulated GPU physical address space (default = enabled)
-gpgpu_num_reg_banks                   32 # Number of register banks (default = 8)
-gpgpu_reg_bank_use_warp_id                    0 # Use warp ID in mapping registers to banks (default = off)
-gpgpu_sub_core_model                    0 # Sub Core Volta/Pascal model (default = off)
-gpgpu_enable_specialized_operand_collector                    1 # enable_specialized_operand_collector
-gpgpu_operand_collector_num_units_sp                   20 # number of collector units (default = 4)
-gpgpu_operand_collector_num_units_dp                    0 # number of collector units (default = 0)
-gpgpu_operand_collector_num_units_sfu                    4 # number of collector units (default = 4)
-gpgpu_operand_collector_num_units_int                    0 # number of collector units (default = 0)
-gpgpu_operand_collector_num_units_tensor_core                    4 # number of collector units (default = 4)
-gpgpu_operand_collector_num_units_mem                    8 # number of collector units (default = 2)
-gpgpu_operand_collector_num_units_gen                    0 # number of collector units (default = 0)
-gpgpu_operand_collector_num_in_ports_sp                    4 # number of collector unit in ports (default = 1)
-gpgpu_operand_collector_num_in_ports_dp                    0 # number of collector unit in ports (default = 0)
-gpgpu_operand_collector_num_in_ports_sfu                    1 # number of collector unit in ports (default = 1)
-gpgpu_operand_collector_num_in_ports_int                    0 # number of collector unit in ports (default = 0)
-gpgpu_operand_collector_num_in_ports_tensor_core                    1 # number of collector unit in ports (default = 1)
-gpgpu_operand_collector_num_in_ports_mem                    1 # number of collector unit in ports (default = 1)
-gpgpu_operand_collector_num_in_ports_gen                    0 # number of collector unit in ports (default = 0)
-gpgpu_operand_collector_num_out_ports_sp                    4 # number of collector unit in ports (default = 1)
-gpgpu_operand_collector_num_out_ports_dp                    0 # number of collector unit in ports (default = 0)
-gpgpu_operand_collector_num_out_ports_sfu                    1 # number of collector unit in ports (default = 1)
-gpgpu_operand_collector_num_out_ports_int                    0 # number of collector unit in ports (default = 0)
-gpgpu_operand_collector_num_out_ports_tensor_core                    1 # number of collector unit in ports (default = 1)
-gpgpu_operand_collector_num_out_ports_mem                    1 # number of collector unit in ports (default = 1)
-gpgpu_operand_collector_num_out_ports_gen                    0 # number of collector unit in ports (default = 0)
-gpgpu_coalesce_arch                   13 # Coalescing arch (GT200 = 13, Fermi = 20)
-gpgpu_num_sched_per_core                    2 # Number of warp schedulers per core
-gpgpu_max_insn_issue_per_warp                    2 # Max number of instructions that can be issued per warp in one cycle by scheduler (either 1 or 2)
-gpgpu_dual_issue_diff_exec_units                    1 # should dual issue use two different execution unit resources (Default = 1)
-gpgpu_simt_core_sim_order                    1 # Select the simulation order of cores in a cluster (0=Fix, 1=Round-Robin)
-gpgpu_pipeline_widths 4,0,0,1,1,4,0,0,1,1,6 # Pipeline widths ID_OC_SP,ID_OC_DP,ID_OC_INT,ID_OC_SFU,ID_OC_MEM,OC_EX_SP,OC_EX_DP,OC_EX_INT,OC_EX_SFU,OC_EX_MEM,EX_WB,ID_OC_TENSOR_CORE,OC_EX_TENSOR_CORE
-gpgpu_tensor_core_avail                    0 # Tensor Core Available (default=0)
-gpgpu_num_sp_units                     4 # Number of SP units (default=1)
-gpgpu_num_dp_units                     0 # Number of DP units (default=0)
-gpgpu_num_int_units                    0 # Number of INT units (default=0)
-gpgpu_num_sfu_units                    1 # Number of SF units (default=1)
-gpgpu_num_tensor_core_units                    0 # Number of tensor_core units (default=1)
-gpgpu_num_mem_units                    1 # Number if ldst units (default=1) WARNING: not hooked up to anything
-gpgpu_scheduler                      gto # Scheduler configuration: < lrr | gto | two_level_active > If two_level_active:<num_active_warps>:<inner_prioritization>:<outer_prioritization>For complete list of prioritization values see shader.h enum scheduler_prioritization_typeDefault: gto
-gpgpu_concurrent_kernel_sm                    0 # Support concurrent kernels on a SM (default = disabled)
-gpgpu_perfect_inst_const_cache                    0 # perfect inst and const cache mode, so all inst and const hits in the cache(default = disabled)
-gpgpu_inst_fetch_throughput                    1 # the number of fetched intruction per warp each cycle
-gpgpu_reg_file_port_throughput                    1 # the number ports of the register file
-specialized_unit_1         0,4,4,4,4,BRA # specialized unit config {<enabled>,<num_units>:<latency>:<initiation>,<ID_OC_SPEC>:<OC_EX_SPEC>,<NAME>}
-specialized_unit_2         0,4,4,4,4,BRA # specialized unit config {<enabled>,<num_units>:<latency>:<initiation>,<ID_OC_SPEC>:<OC_EX_SPEC>,<NAME>}
-specialized_unit_3         0,4,4,4,4,BRA # specialized unit config {<enabled>,<num_units>:<latency>:<initiation>,<ID_OC_SPEC>:<OC_EX_SPEC>,<NAME>}
-specialized_unit_4         0,4,4,4,4,BRA # specialized unit config {<enabled>,<num_units>:<latency>:<initiation>,<ID_OC_SPEC>:<OC_EX_SPEC>,<NAME>}
-specialized_unit_5         0,4,4,4,4,BRA # specialized unit config {<enabled>,<num_units>:<latency>:<initiation>,<ID_OC_SPEC>:<OC_EX_SPEC>,<NAME>}
-specialized_unit_6         0,4,4,4,4,BRA # specialized unit config {<enabled>,<num_units>:<latency>:<initiation>,<ID_OC_SPEC>:<OC_EX_SPEC>,<NAME>}
-specialized_unit_7         0,4,4,4,4,BRA # specialized unit config {<enabled>,<num_units>:<latency>:<initiation>,<ID_OC_SPEC>:<OC_EX_SPEC>,<NAME>}
-specialized_unit_8         0,4,4,4,4,BRA # specialized unit config {<enabled>,<num_units>:<latency>:<initiation>,<ID_OC_SPEC>:<OC_EX_SPEC>,<NAME>}
-gpgpu_perf_sim_memcpy                    1 # Fill the L2 cache on memcpy
-gpgpu_simple_dram_model                    0 # simple_dram_model with fixed latency and BW
-gpgpu_dram_scheduler                    1 # 0 = fifo, 1 = FR-FCFS (defaul)
-gpgpu_dram_partition_queues              8:8:8:8 # i2$:$2d:d2$:$2i
-l2_ideal                               0 # Use a ideal L2 cache that always hit
-gpgpu_cache:dl2     N:64:128:16,L:B:m:W:L,A:1024:1024,4:0,32 # unified banked L2 data cache config  {<nsets>:<bsize>:<assoc>,<rep>:<wr>:<alloc>:<wr_alloc>,<mshr>:<N>:<merge>,<mq>}
-gpgpu_cache:dl2_texture_only                    0 # L2 cache used for texture only
-gpgpu_n_mem                            8 # number of memory modules (e.g. memory controllers) in gpu
-gpgpu_n_sub_partition_per_mchannel                    2 # number of memory subpartition in each memory module
-gpgpu_n_mem_per_ctrlr                    1 # number of memory chips per memory controller
-gpgpu_memlatency_stat                   14 # track and display latency statistics 0x2 enables MC, 0x4 enables queue logs
-gpgpu_frfcfs_dram_sched_queue_size                   64 # 0 = unlimited (default); # entries per chip
-gpgpu_dram_return_queue_size                  116 # 0 = unlimited (default); # entries per chip
-gpgpu_dram_buswidth                    4 # default = 4 bytes (8 bytes per cycle at DDR)
-gpgpu_dram_burst_length                    8 # Burst length of each DRAM request (default = 4 data bus cycle)
-dram_data_command_freq_ratio                    4 # Frequency ratio between DRAM data bus and command bus (default = 2 times, i.e. DDR)
-gpgpu_dram_timing_opt nbk=16:CCD=2:RRD=6:RCD=12:RAS=28:RP=12:RC=40: CL=12:WL=4:CDLR=5:WR=12:nbkgrp=1:CCDL=0:RTPL=0 # DRAM timing parameters = {nbk:tCCD:tRRD:tRCD:tRAS:tRP:tRC:CL:WL:tCDLR:tWR:nbkgrp:tCCDL:tRTPL}
-gpgpu_l2_rop_latency                  120 # ROP queue latency (default 85)
-dram_latency                         100 # DRAM latency (default 30)
-dram_dual_bus_interface                    0 # dual_bus_interface (default = 0) 
-dram_bnk_indexing_policy                    0 # dram_bnk_indexing_policy (0 = normal indexing, 1 = Xoring with the higher bits) (Default = 0)
-dram_bnkgrp_indexing_policy                    0 # dram_bnkgrp_indexing_policy (0 = take higher bits, 1 = take lower bits) (Default = 0)
-dram_seperate_write_queue_enable                    0 # Seperate_Write_Queue_Enable
-dram_write_queue_size             32:28:16 # Write_Queue_Size
-dram_elimnate_rw_turnaround                    0 # elimnate_rw_turnaround i.e set tWTR and tRTW = 0
-icnt_flit_size                        32 # icnt_flit_size
-gpgpu_mem_addr_mapping dramid@8;00000000.00000000.00000000.00000000.0000RRRR.RRRRRRRR.RBBBCCCC.BCCSSSSS # mapping memory address to dram model {dramid@<start bit>;<memory address map>}
-gpgpu_mem_addr_test                    0 # run sweep test to check address mapping for aliased address
-gpgpu_mem_address_mask                    1 # 0 = old addressing mask, 1 = new addressing mask, 2 = new add. mask + flipped bank sel and chip sel bits
-gpgpu_memory_partition_indexing                    0 # 0 = no indexing, 1 = bitwise xoring, 2 = IPoly, 3 = custom indexing
-accelwattch_xml_file accelwattch_sass_sim.xml # AccelWattch XML file
-power_simulation_enabled                    0 # Turn on power simulator (1=On, 0=Off)
-power_per_cycle_dump                    0 # Dump detailed power output each cycle
-hw_perf_file_name            hw_perf.csv # Hardware Performance Statistics file
-hw_perf_bench_name                       # Kernel Name in Hardware Performance Statistics file
-power_simulation_mode                    0 # Switch performance counter input for power simulation (0=Sim, 1=HW, 2=HW-Sim Hybrid)
-dvfs_enabled                           0 # Turn on DVFS for power model
-aggregate_power_stats                    0 # Accumulate power across all kernels
-accelwattch_hybrid_perfsim_L1_RH                    0 # Get L1 Read Hits for Accelwattch-Hybrid from Accel-Sim
-accelwattch_hybrid_perfsim_L1_RM                    0 # Get L1 Read Misses for Accelwattch-Hybrid from Accel-Sim
-accelwattch_hybrid_perfsim_L1_WH                    0 # Get L1 Write Hits for Accelwattch-Hybrid from Accel-Sim
-accelwattch_hybrid_perfsim_L1_WM                    0 # Get L1 Write Misses for Accelwattch-Hybrid from Accel-Sim
-accelwattch_hybrid_perfsim_L2_RH                    0 # Get L2 Read Hits for Accelwattch-Hybrid from Accel-Sim
-accelwattch_hybrid_perfsim_L2_RM                    0 # Get L2 Read Misses for Accelwattch-Hybrid from Accel-Sim
-accelwattch_hybrid_perfsim_L2_WH                    0 # Get L2 Write Hits for Accelwattch-Hybrid from Accel-Sim
-accelwattch_hybrid_perfsim_L2_WM                    0 # Get L2 Write Misses for Accelwattch-Hybrid from Accel-Sim
-accelwattch_hybrid_perfsim_CC_ACC                    0 # Get Constant Cache Acesses for Accelwattch-Hybrid from Accel-Sim
-accelwattch_hybrid_perfsim_SHARED_ACC                    0 # Get Shared Memory Acesses for Accelwattch-Hybrid from Accel-Sim
-accelwattch_hybrid_perfsim_DRAM_RD                    0 # Get DRAM Reads for Accelwattch-Hybrid from Accel-Sim
-accelwattch_hybrid_perfsim_DRAM_WR                    0 # Get DRAM Writes for Accelwattch-Hybrid from Accel-Sim
-accelwattch_hybrid_perfsim_NOC                    0 # Get Interconnect Acesses for Accelwattch-Hybrid from Accel-Sim
-accelwattch_hybrid_perfsim_PIPE_DUTY                    0 # Get Pipeline Duty Cycle Acesses for Accelwattch-Hybrid from Accel-Sim
-accelwattch_hybrid_perfsim_NUM_SM_IDLE                    0 # Get Number of Idle SMs for Accelwattch-Hybrid from Accel-Sim
-accelwattch_hybrid_perfsim_CYCLES                    0 # Get Executed Cycles for Accelwattch-Hybrid from Accel-Sim
-accelwattch_hybrid_perfsim_VOLTAGE                    0 # Get Chip Voltage for Accelwattch-Hybrid from Accel-Sim
-power_trace_enabled                    0 # produce a file for the power trace (1=On, 0=Off)
-power_trace_zlevel                     6 # Compression level of the power trace output log (0=no comp, 9=highest)
-steady_power_levels_enabled                    0 # produce a file for the steady power levels (1=On, 0=Off)
-steady_state_definition                  8:4 # allowed deviation:number of samples
-gpgpu_max_cycle                        0 # terminates gpu simulation early (0 = no limit)
-gpgpu_max_insn                         0 # terminates gpu simulation early (0 = no limit)
-gpgpu_max_cta                          0 # terminates gpu simulation early (0 = no limit)
-gpgpu_max_completed_cta                    0 # terminates gpu simulation early (0 = no limit)
-gpgpu_runtime_stat                   500 # display runtime statistics such as dram utilization {<freq>:<flag>}
-liveness_message_freq                    1 # Minimum number of seconds between simulation liveness messages (0 = always print)
-gpgpu_compute_capability_major                    7 # Major compute capability version number
-gpgpu_compute_capability_minor                    0 # Minor compute capability version number
-gpgpu_flush_l1_cache                    0 # Flush L1 cache at the end of each kernel call
-gpgpu_flush_l2_cache                    0 # Flush L2 cache at the end of each kernel call
-gpgpu_deadlock_detect                    1 # Stop the simulation at deadlock (1=on (default), 0=off)
-gpgpu_ptx_instruction_classification                    0 # if enabled will classify ptx instruction types per kernel (Max 255 kernels now)
-gpgpu_ptx_sim_mode                     0 # Select between Performance (default) or Functional simulation (1)
-gpgpu_clock_domains 1607.0:1607.0:1607.0:2500.0 # Clock Domain Frequencies in MhZ {<Core Clock>:<ICNT Clock>:<L2 Clock>:<DRAM Clock>}
-gpgpu_max_concurrent_kernel                   32 # maximum kernels that can run concurrently on GPU, set this value according to max resident grids for your compute capability
-gpgpu_cflog_interval                    0 # Interval between each snapshot in control flow logger
-visualizer_enabled                     0 # Turn on visualizer output (1=On, 0=Off)
-visualizer_outputfile                 NULL # Specifies the output log file for visualizer
-visualizer_zlevel                      6 # Compression level of the visualizer output log (0=no comp, 9=highest)
-gpgpu_stack_size_limit                 1024 # GPU thread stack size
-gpgpu_heap_size_limit              8388608 # GPU malloc heap size 
-gpgpu_runtime_sync_depth_limit                    2 # GPU device runtime synchronize depth
-gpgpu_runtime_pending_launch_count_limit                 2048 # GPU device runtime pending launch count
-trace_enabled                          0 # Turn on traces
-trace_components                    none # comma seperated list of traces to enable. Complete list found in trace_streams.tup. Default none
-trace_sampling_core                    0 # The core which is printed using CORE_DPRINTF. Default 0
-trace_sampling_memory_partition                   -1 # The memory partition which is printed using MEMPART_DPRINTF. Default -1 (i.e. all)
-enable_ptx_file_line_stats                    1 # Turn on PTX source line statistic profiling. (1 = On)
-ptx_line_stats_filename gpgpu_inst_stats.txt # Output file for PTX source line statistics.
-gpgpu_kernel_launch_latency                    0 # Kernel launch latency in cycles. Default: 0
-gpgpu_cdp_enabled                      0 # Turn on CDP
-gpgpu_TB_launch_latency                    0 # thread block launch latency in cycles. Default: 0
DRAM Timing Options:
nbk                                    16 # number of banks
CCD                                     2 # column to column delay
RRD                                     6 # minimal delay between activation of rows in different banks
RCD                                    12 # row to column delay
RAS                                    28 # time needed to activate row
RP                                     12 # time needed to precharge (deactivate) row
RC                                     40 # row cycle time
CDLR                                    5 # switching from write to read (changes tWTR)
WR                                     12 # last data-in to row precharge
CL                                     12 # CAS latency
WL                                      4 # Write latency
nbkgrp                                  1 # number of bank groups
CCDL                                    0 # column to column delay between accesses to different bank groups
RTPL                                    0 # read to precharge delay between accesses to different bank groups
Total number of memory sub partition = 16
addr_dec_mask[CHIP]  = 0000000000000700 	high:11 low:8
addr_dec_mask[BK]    = 0000000000038080 	high:18 low:7
addr_dec_mask[ROW]   = 000000007ffc0000 	high:31 low:18
addr_dec_mask[COL]   = 000000000000787f 	high:15 low:0
addr_dec_mask[BURST] = 000000000000001f 	high:5 low:0
sub_partition_id_mask = 0000000000000080
GPGPU-Sim uArch: clock freqs: 1607000000.000000:1607000000.000000:1607000000.000000:2500000000.000000
GPGPU-Sim uArch: clock periods: 0.00000000062227753578:0.00000000062227753578:0.00000000062227753578:0.00000000040000000000
*** Initializing Memory Statistics ***
GPGPU-Sim uArch: interconnect node map (shaderID+MemID to icntID)
GPGPU-Sim uArch: Memory nodes ID start from index: 20
GPGPU-Sim uArch:    0   1   2   3   4   5   6
GPGPU-Sim uArch:    7   8   9  10  11  12  13
GPGPU-Sim uArch:   14  15  16  17  18  19  20
GPGPU-Sim uArch:   21  22  23  24  25  26  27
GPGPU-Sim uArch:   28  29  30  31  32  33  34
GPGPU-Sim uArch:   35  36  37  38  39  40  41
GPGPU-Sim uArch:   42  43  44  45  46  47  48
GPGPU-Sim uArch:   49
GPGPU-Sim uArch: interconnect node reverse map (icntID to shaderID+MemID)
GPGPU-Sim uArch: Memory nodes start from ID: 20
GPGPU-Sim uArch:    0   1   2   3   4   5   6
GPGPU-Sim uArch:    7   8   9  10  11  12  13
GPGPU-Sim uArch:   14  15  16  17  18  19  20
GPGPU-Sim uArch:   21  22  23  24  25  26  27
GPGPU-Sim uArch:   28  29  30  31  32  33  34
GPGPU-Sim uArch:   35  36  37  38  39  40  41
GPGPU-Sim uArch:   42  43  44  45  46  47  48
GPGPU-Sim uArch:   49
e90e1593f550adeda12807e5bb92529b  /benchrun/accelsim-ptx/sm6_gtx1080/babelstream/input-arraysize-1024-numtimes-2/CUDAStream
Extracting PTX file and ptxas options    1: CUDAStream.1.sm_30.ptx -arch=sm_30
GPGPU-Sim uArch: performance model initialization complete.
self exe links to: /benchrun/accelsim-ptx/sm6_gtx1080/babelstream/input-arraysize-1024-numtimes-2/CUDAStream
self exe links to: /benchrun/accelsim-ptx/sm6_gtx1080/babelstream/input-arraysize-1024-numtimes-2/CUDAStream
10.1
GPGPU-Sim PTX: __cudaRegisterFatBinary, fat_cubin_handle = 1, filename=default
self exe links to: /benchrun/accelsim-ptx/sm6_gtx1080/babelstream/input-arraysize-1024-numtimes-2/CUDAStream
Running md5sum using "md5sum /benchrun/accelsim-ptx/sm6_gtx1080/babelstream/input-arraysize-1024-numtimes-2/CUDAStream "
self exe links to: /benchrun/accelsim-ptx/sm6_gtx1080/babelstream/input-arraysize-1024-numtimes-2/CUDAStream
Extracting specific PTX file named CUDAStream.1.sm_30.ptx 
GPGPU-Sim PTX: __cudaRegisterFunction _Z11init_kernelIdEvPT_S1_S1_S0_S0_S0_ : hostFun 0x0x563eb4c104f1, fat_cubin_handle = 1
GPGPU-Sim PTX: Parsing CUDAStream.1.sm_30.ptx
GPGPU-Sim PTX: instruction assembly for function '_Z11copy_kernelIfEvPKT_PS0_'...   done.
GPGPU-Sim PTX: instruction assembly for function '_Z10add_kernelIfEvPKT_S2_PS0_'...   done.
GPGPU-Sim PTX: instruction assembly for function '_Z10mul_kernelIfEvPT_PKS0_'...   done.
GPGPU-Sim PTX: instruction assembly for function '_Z12triad_kernelIfEvPT_PKS0_S3_'...   done.
GPGPU-Sim PTX: instruction assembly for function '_Z14nstream_kernelIfEvPT_PKS0_S3_'...   done.
GPGPU-Sim PTX: allocating shared region for "_ZZ10dot_kernelIfEvPKT_S2_PS0_iE6tb_sum" from 0x0 to 0x1000 (shared memory space)
GPGPU-Sim PTX: instruction assembly for function '_Z10dot_kernelIfEvPKT_S2_PS0_i'...   done.
GPGPU-Sim PTX: instruction assembly for function '_Z11init_kernelIfEvPT_S1_S1_S0_S0_S0_'...   done.
GPGPU-Sim PTX: instruction assembly for function '_Z11copy_kernelIdEvPKT_PS0_'...   done.
GPGPU-Sim PTX: instruction assembly for function '_Z10add_kernelIdEvPKT_S2_PS0_'...   done.
GPGPU-Sim PTX: instruction assembly for function '_Z10mul_kernelIdEvPT_PKS0_'...   done.
GPGPU-Sim PTX: instruction assembly for function '_Z12triad_kernelIdEvPT_PKS0_S3_'...   done.
GPGPU-Sim PTX: instruction assembly for function '_Z14nstream_kernelIdEvPT_PKS0_S3_'...   done.
GPGPU-Sim PTX: allocating shared region for "_ZZ10dot_kernelIdEvPKT_S2_PS0_iE6tb_sum" from 0x0 to 0x2000 (shared memory space)
GPGPU-Sim PTX: instruction assembly for function '_Z10dot_kernelIdEvPKT_S2_PS0_i'...   done.
GPGPU-Sim PTX: instruction assembly for function '_Z11init_kernelIdEvPT_S1_S1_S0_S0_S0_'...   done.
GPGPU-Sim PTX: finished parsing EMBEDDED .ptx file CUDAStream.1.sm_30.ptx
GPGPU-Sim PTX: loading globals with explicit initializers... 
GPGPU-Sim PTX: finished loading globals (0 bytes total).
GPGPU-Sim PTX: loading constants with explicit initializers...  done.
GPGPU-Sim PTX: Loading PTXInfo from CUDAStream.1.sm_30.ptx
GPGPU-Sim PTX: Kernel '_Z11init_kernelIdEvPT_S1_S1_S0_S0_S0_' : regs=14, lmem=0, smem=0, cmem=368
GPGPU-Sim PTX: Kernel '_Z10dot_kernelIdEvPKT_S2_PS0_i' : regs=12, lmem=0, smem=8192, cmem=348
GPGPU-Sim PTX: Kernel '_Z14nstream_kernelIdEvPT_PKS0_S3_' : regs=12, lmem=0, smem=0, cmem=352
GPGPU-Sim PTX: Kernel '_Z12triad_kernelIdEvPT_PKS0_S3_' : regs=10, lmem=0, smem=0, cmem=352
GPGPU-Sim PTX: Kernel '_Z10mul_kernelIdEvPT_PKS0_' : regs=8, lmem=0, smem=0, cmem=344
GPGPU-Sim PTX: Kernel '_Z10add_kernelIdEvPKT_S2_PS0_' : regs=10, lmem=0, smem=0, cmem=344
GPGPU-Sim PTX: Kernel '_Z11copy_kernelIdEvPKT_PS0_' : regs=6, lmem=0, smem=0, cmem=336
GPGPU-Sim PTX: Kernel '_Z11init_kernelIfEvPT_S1_S1_S0_S0_S0_' : regs=10, lmem=0, smem=0, cmem=356
GPGPU-Sim PTX: Kernel '_Z10dot_kernelIfEvPKT_S2_PS0_i' : regs=12, lmem=0, smem=4096, cmem=348
GPGPU-Sim PTX: Kernel '_Z14nstream_kernelIfEvPT_PKS0_S3_' : regs=10, lmem=0, smem=0, cmem=348
GPGPU-Sim PTX: Kernel '_Z12triad_kernelIfEvPT_PKS0_S3_' : regs=8, lmem=0, smem=0, cmem=348
GPGPU-Sim PTX: Kernel '_Z10mul_kernelIfEvPT_PKS0_' : regs=6, lmem=0, smem=0, cmem=336
GPGPU-Sim PTX: Kernel '_Z10add_kernelIfEvPKT_S2_PS0_' : regs=8, lmem=0, smem=0, cmem=344
GPGPU-Sim PTX: Kernel '_Z11copy_kernelIfEvPKT_PS0_' : regs=6, lmem=0, smem=0, cmem=336
GPGPU-Sim PTX: __cudaRegisterFunction _Z10dot_kernelIdEvPKT_S2_PS0_i : hostFun 0x0x563eb4c104bf, fat_cubin_handle = 1
GPGPU-Sim PTX: __cudaRegisterFunction _Z14nstream_kernelIdEvPT_PKS0_S3_ : hostFun 0x0x563eb4c10491, fat_cubin_handle = 1
GPGPU-Sim PTX: __cudaRegisterFunction _Z12triad_kernelIdEvPT_PKS0_S3_ : hostFun 0x0x563eb4c10463, fat_cubin_handle = 1
GPGPU-Sim PTX: __cudaRegisterFunction _Z10mul_kernelIdEvPT_PKS0_ : hostFun 0x0x563eb4c1043d, fat_cubin_handle = 1
GPGPU-Sim PTX: __cudaRegisterFunction _Z10add_kernelIdEvPKT_S2_PS0_ : hostFun 0x0x563eb4c1040f, fat_cubin_handle = 1
GPGPU-Sim PTX: __cudaRegisterFunction _Z11copy_kernelIdEvPKT_PS0_ : hostFun 0x0x563eb4c103e9, fat_cubin_handle = 1
GPGPU-Sim PTX: __cudaRegisterFunction _Z11init_kernelIfEvPT_S1_S1_S0_S0_S0_ : hostFun 0x0x563eb4c1039d, fat_cubin_handle = 1
GPGPU-Sim PTX: __cudaRegisterFunction _Z10dot_kernelIfEvPKT_S2_PS0_i : hostFun 0x0x563eb4c1036b, fat_cubin_handle = 1
GPGPU-Sim PTX: __cudaRegisterFunction _Z14nstream_kernelIfEvPT_PKS0_S3_ : hostFun 0x0x563eb4c1033d, fat_cubin_handle = 1
GPGPU-Sim PTX: __cudaRegisterFunction _Z12triad_kernelIfEvPT_PKS0_S3_ : hostFun 0x0x563eb4c1030f, fat_cubin_handle = 1
GPGPU-Sim PTX: __cudaRegisterFunction _Z10mul_kernelIfEvPT_PKS0_ : hostFun 0x0x563eb4c102e9, fat_cubin_handle = 1
GPGPU-Sim PTX: __cudaRegisterFunction _Z10add_kernelIfEvPKT_S2_PS0_ : hostFun 0x0x563eb4c102bb, fat_cubin_handle = 1
GPGPU-Sim PTX: __cudaRegisterFunction _Z11copy_kernelIfEvPKT_PS0_ : hostFun 0x0x563eb4c10295, fat_cubin_handle = 1
BabelStream
Version: 4.0
Implementation: CUDA
Running kernels 2 times
Precision: double
Array size: 0.0 MB (=0.0 GB)
Total size: 0.0 MB (=0.0 GB)
Using CUDA device GPGPU-Sim_vGPGPU-Sim Simulator Version 4.2.0 
Driver: 10010
GPGPU-Sim PTX: Setting up arguments for 8 bytes starting at 0x7ffdfdafea98..
GPGPU-Sim PTX: Setting up arguments for 8 bytes starting at 0x7ffdfdafea90..
GPGPU-Sim PTX: Setting up arguments for 8 bytes starting at 0x7ffdfdafea88..
GPGPU-Sim PTX: Setting up arguments for 8 bytes starting at 0x7ffdfdafea80..
GPGPU-Sim PTX: Setting up arguments for 8 bytes starting at 0x7ffdfdafea78..
GPGPU-Sim PTX: Setting up arguments for 8 bytes starting at 0x7ffdfdafea70..

GPGPU-Sim PTX: cudaLaunch for 0x0x563eb4c104f1 (mode=performance simulation) on stream 0
GPGPU-Sim PTX: finding reconvergence points for '_Z11init_kernelIdEvPT_S1_S1_S0_S0_S0_'...
GPGPU-Sim PTX: Finding dominators for '_Z11init_kernelIdEvPT_S1_S1_S0_S0_S0_'...
GPGPU-Sim PTX: Finding immediate dominators for '_Z11init_kernelIdEvPT_S1_S1_S0_S0_S0_'...
GPGPU-Sim PTX: Finding postdominators for '_Z11init_kernelIdEvPT_S1_S1_S0_S0_S0_'...
GPGPU-Sim PTX: Finding immediate postdominators for '_Z11init_kernelIdEvPT_S1_S1_S0_S0_S0_'...
GPGPU-Sim PTX: pre-decoding instructions for '_Z11init_kernelIdEvPT_S1_S1_S0_S0_S0_'...
GPGPU-Sim PTX: reconvergence points for _Z11init_kernelIdEvPT_S1_S1_S0_S0_S0_...
GPGPU-Sim PTX: ... end of reconvergence points for _Z11init_kernelIdEvPT_S1_S1_S0_S0_S0_
GPGPU-Sim PTX: ... done pre-decoding instructions for '_Z11init_kernelIdEvPT_S1_S1_S0_S0_S0_'.
GPGPU-Sim PTX: pushing kernel '_Z11init_kernelIdEvPT_S1_S1_S0_S0_S0_' to stream 0, gridDim= (1,1,1) blockDim = (1024,1,1) 
GPGPU-Sim uArch: Shader 0 bind to kernel 1 '_Z11init_kernelIdEvPT_S1_S1_S0_S0_S0_'
GPGPU-Sim uArch: CTA/core = 2, limited by: threads
Destroy streams for kernel 1: size 0
kernel_name = _Z11init_kernelIdEvPT_S1_S1_S0_S0_S0_ 
kernel_launch_uid = 1 
gpu_sim_cycle = 2141
gpu_sim_insn = 21504
gpu_ipc =      10.0439
gpu_tot_sim_cycle = 2141
gpu_tot_sim_insn = 21504
gpu_tot_ipc =      10.0439
gpu_tot_issued_cta = 1
gpu_occupancy = 37.8178% 
gpu_tot_occupancy = 37.8178% 
max_total_param_size = 0
gpu_stall_dramfull = 0
gpu_stall_icnt2sh    = 0
partiton_level_parallism =       0.0915
partiton_level_parallism_total  =       0.0915
partiton_level_parallism_util =       1.0000
partiton_level_parallism_util_total  =       1.0000
L2_BW  =       4.7077 GB/Sec
L2_BW_total  =       4.7077 GB/Sec
gpu_total_sim_rate=21504

========= Core cache stats =========
L1I_cache:
	L1I_total_cache_accesses = 352
	L1I_total_cache_misses = 72
	L1I_total_cache_miss_rate = 0.2045
	L1I_total_cache_pending_hits = 0
	L1I_total_cache_reservation_fails = 0
L1D_cache:
	L1D_cache_core[0]: Access = 0, Miss = 0, Miss_rate = -nan, Pending_hits = 0, Reservation_fails = 0
	L1D_cache_core[1]: Access = 0, Miss = 0, Miss_rate = -nan, Pending_hits = 0, Reservation_fails = 0
	L1D_cache_core[2]: Access = 0, Miss = 0, Miss_rate = -nan, Pending_hits = 0, Reservation_fails = 0
	L1D_cache_core[3]: Access = 0, Miss = 0, Miss_rate = -nan, Pending_hits = 0, Reservation_fails = 0
	L1D_cache_core[4]: Access = 0, Miss = 0, Miss_rate = -nan, Pending_hits = 0, Reservation_fails = 0
	L1D_cache_core[5]: Access = 0, Miss = 0, Miss_rate = -nan, Pending_hits = 0, Reservation_fails = 0
	L1D_cache_core[6]: Access = 0, Miss = 0, Miss_rate = -nan, Pending_hits = 0, Reservation_fails = 0
	L1D_cache_core[7]: Access = 0, Miss = 0, Miss_rate = -nan, Pending_hits = 0, Reservation_fails = 0
	L1D_cache_core[8]: Access = 0, Miss = 0, Miss_rate = -nan, Pending_hits = 0, Reservation_fails = 0
	L1D_cache_core[9]: Access = 0, Miss = 0, Miss_rate = -nan, Pending_hits = 0, Reservation_fails = 0
	L1D_cache_core[10]: Access = 0, Miss = 0, Miss_rate = -nan, Pending_hits = 0, Reservation_fails = 0
	L1D_cache_core[11]: Access = 0, Miss = 0, Miss_rate = -nan, Pending_hits = 0, Reservation_fails = 0
	L1D_cache_core[12]: Access = 0, Miss = 0, Miss_rate = -nan, Pending_hits = 0, Reservation_fails = 0
	L1D_cache_core[13]: Access = 0, Miss = 0, Miss_rate = -nan, Pending_hits = 0, Reservation_fails = 0
	L1D_cache_core[14]: Access = 0, Miss = 0, Miss_rate = -nan, Pending_hits = 0, Reservation_fails = 0
	L1D_cache_core[15]: Access = 0, Miss = 0, Miss_rate = -nan, Pending_hits = 0, Reservation_fails = 0
	L1D_cache_core[16]: Access = 0, Miss = 0, Miss_rate = -nan, Pending_hits = 0, Reservation_fails = 0
	L1D_cache_core[17]: Access = 0, Miss = 0, Miss_rate = -nan, Pending_hits = 0, Reservation_fails = 0
	L1D_cache_core[18]: Access = 0, Miss = 0, Miss_rate = -nan, Pending_hits = 0, Reservation_fails = 0
	L1D_cache_core[19]: Access = 0, Miss = 0, Miss_rate = -nan, Pending_hits = 0, Reservation_fails = 0
	L1D_total_cache_accesses = 0
	L1D_total_cache_misses = 0
	L1D_total_cache_pending_hits = 0
	L1D_total_cache_reservation_fails = 0
	L1D_cache_data_port_util = 0.000
	L1D_cache_fill_port_util = 0.000
L1C_cache:
	L1C_total_cache_accesses = 192
	L1C_total_cache_misses = 64
	L1C_total_cache_miss_rate = 0.3333
	L1C_total_cache_pending_hits = 0
	L1C_total_cache_reservation_fails = 200
L1T_cache:
	L1T_total_cache_accesses = 0
	L1T_total_cache_misses = 0
	L1T_total_cache_pending_hits = 0
	L1T_total_cache_reservation_fails = 0

Total_core_cache_stats:
	Total_core_cache_stats_breakdown[GLOBAL_ACC_R][HIT] = 0
	Total_core_cache_stats_breakdown[GLOBAL_ACC_R][HIT_RESERVED] = 0
	Total_core_cache_stats_breakdown[GLOBAL_ACC_R][MISS] = 0
	Total_core_cache_stats_breakdown[GLOBAL_ACC_R][RESERVATION_FAIL] = 0
	Total_core_cache_stats_breakdown[GLOBAL_ACC_R][SECTOR_MISS] = 0
	Total_core_cache_stats_breakdown[GLOBAL_ACC_R][MSHR_HIT] = 0
	Total_core_cache_stats_breakdown[LOCAL_ACC_R][HIT] = 0
	Total_core_cache_stats_breakdown[LOCAL_ACC_R][HIT_RESERVED] = 0
	Total_core_cache_stats_breakdown[LOCAL_ACC_R][MISS] = 0
	Total_core_cache_stats_breakdown[LOCAL_ACC_R][RESERVATION_FAIL] = 0
	Total_core_cache_stats_breakdown[LOCAL_ACC_R][SECTOR_MISS] = 0
	Total_core_cache_stats_breakdown[LOCAL_ACC_R][MSHR_HIT] = 0
	Total_core_cache_stats_breakdown[CONST_ACC_R][HIT] = 128
	Total_core_cache_stats_breakdown[CONST_ACC_R][HIT_RESERVED] = 0
	Total_core_cache_stats_breakdown[CONST_ACC_R][MISS] = 64
	Total_core_cache_stats_breakdown[CONST_ACC_R][RESERVATION_FAIL] = 200
	Total_core_cache_stats_breakdown[CONST_ACC_R][SECTOR_MISS] = 0
	Total_core_cache_stats_breakdown[CONST_ACC_R][MSHR_HIT] = 63
	Total_core_cache_stats_breakdown[TEXTURE_ACC_R][HIT] = 0
	Total_core_cache_stats_breakdown[TEXTURE_ACC_R][HIT_RESERVED] = 0
	Total_core_cache_stats_breakdown[TEXTURE_ACC_R][MISS] = 0
	Total_core_cache_stats_breakdown[TEXTURE_ACC_R][RESERVATION_FAIL] = 0
	Total_core_cache_stats_breakdown[TEXTURE_ACC_R][SECTOR_MISS] = 0
	Total_core_cache_stats_breakdown[TEXTURE_ACC_R][MSHR_HIT] = 0
	Total_core_cache_stats_breakdown[GLOBAL_ACC_W][HIT] = 0
	Total_core_cache_stats_breakdown[GLOBAL_ACC_W][HIT_RESERVED] = 0
	Total_core_cache_stats_breakdown[GLOBAL_ACC_W][MISS] = 0
	Total_core_cache_stats_breakdown[GLOBAL_ACC_W][RESERVATION_FAIL] = 0
	Total_core_cache_stats_breakdown[GLOBAL_ACC_W][SECTOR_MISS] = 0
	Total_core_cache_stats_breakdown[GLOBAL_ACC_W][MSHR_HIT] = 0
	Total_core_cache_stats_breakdown[LOCAL_ACC_W][HIT] = 0
	Total_core_cache_stats_breakdown[LOCAL_ACC_W][HIT_RESERVED] = 0
	Total_core_cache_stats_breakdown[LOCAL_ACC_W][MISS] = 0
	Total_core_cache_stats_breakdown[LOCAL_ACC_W][RESERVATION_FAIL] = 0
	Total_core_cache_stats_breakdown[LOCAL_ACC_W][SECTOR_MISS] = 0
	Total_core_cache_stats_breakdown[LOCAL_ACC_W][MSHR_HIT] = 0
	Total_core_cache_stats_breakdown[L1_WRBK_ACC][HIT] = 0
	Total_core_cache_stats_breakdown[L1_WRBK_ACC][HIT_RESERVED] = 0
	Total_core_cache_stats_breakdown[L1_WRBK_ACC][MISS] = 0
	Total_core_cache_stats_breakdown[L1_WRBK_ACC][RESERVATION_FAIL] = 0
	Total_core_cache_stats_breakdown[L1_WRBK_ACC][SECTOR_MISS] = 0
	Total_core_cache_stats_breakdown[L1_WRBK_ACC][MSHR_HIT] = 0
	Total_core_cache_stats_breakdown[L2_WRBK_ACC][HIT] = 0
	Total_core_cache_stats_breakdown[L2_WRBK_ACC][HIT_RESERVED] = 0
	Total_core_cache_stats_breakdown[L2_WRBK_ACC][MISS] = 0
	Total_core_cache_stats_breakdown[L2_WRBK_ACC][RESERVATION_FAIL] = 0
	Total_core_cache_stats_breakdown[L2_WRBK_ACC][SECTOR_MISS] = 0
	Total_core_cache_stats_breakdown[L2_WRBK_ACC][MSHR_HIT] = 0
	Total_core_cache_stats_breakdown[INST_ACC_R][HIT] = 280
	Total_core_cache_stats_breakdown[INST_ACC_R][HIT_RESERVED] = 0
	Total_core_cache_stats_breakdown[INST_ACC_R][MISS] = 72
	Total_core_cache_stats_breakdown[INST_ACC_R][RESERVATION_FAIL] = 0
	Total_core_cache_stats_breakdown[INST_ACC_R][SECTOR_MISS] = 0
	Total_core_cache_stats_breakdown[INST_ACC_R][MSHR_HIT] = 69
	Total_core_cache_stats_breakdown[L1_WR_ALLOC_R][HIT] = 0
	Total_core_cache_stats_breakdown[L1_WR_ALLOC_R][HIT_RESERVED] = 0
	Total_core_cache_stats_breakdown[L1_WR_ALLOC_R][MISS] = 0
	Total_core_cache_stats_breakdown[L1_WR_ALLOC_R][RESERVATION_FAIL] = 0
	Total_core_cache_stats_breakdown[L1_WR_ALLOC_R][SECTOR_MISS] = 0
	Total_core_cache_stats_breakdown[L1_WR_ALLOC_R][MSHR_HIT] = 0
	Total_core_cache_stats_breakdown[L2_WR_ALLOC_R][HIT] = 0
	Total_core_cache_stats_breakdown[L2_WR_ALLOC_R][HIT_RESERVED] = 0
	Total_core_cache_stats_breakdown[L2_WR_ALLOC_R][MISS] = 0
	Total_core_cache_stats_breakdown[L2_WR_ALLOC_R][RESERVATION_FAIL] = 0
	Total_core_cache_stats_breakdown[L2_WR_ALLOC_R][SECTOR_MISS] = 0
	Total_core_cache_stats_breakdown[L2_WR_ALLOC_R][MSHR_HIT] = 0
	Total_core_cache_stats_breakdown[CONST_ACC_R][TOTAL_ACCESS] = 192
	Total_core_cache_stats_breakdown[INST_ACC_R][TOTAL_ACCESS] = 352

Total_core_cache_fail_stats:
	Total_core_cache_fail_stats_breakdown[CONST_ACC_R][MSHR_MERGE_ENRTY_FAIL] = 200
ctas_completed 1, Shader 0 warp_id issue ditsribution:
warp_id:
0, 1, 2, 3, 4, 5, 6, 7, 8, 9, 10, 11, 12, 13, 14, 15, 16, 17, 18, 19, 20, 21, 22, 23, 24, 25, 26, 27, 28, 29, 30, 31, 
distro:
21, 21, 21, 21, 21, 21, 21, 21, 21, 21, 21, 21, 21, 21, 21, 21, 21, 21, 21, 21, 21, 21, 21, 21, 21, 21, 21, 21, 21, 21, 21, 21, 
gpgpu_n_tot_thrd_icount = 21504
gpgpu_n_tot_w_icount = 672
gpgpu_n_stall_shd_mem = 1217
gpgpu_n_mem_read_local = 0
gpgpu_n_mem_write_local = 0
gpgpu_n_mem_read_global = 0
gpgpu_n_mem_write_global = 192
gpgpu_n_mem_texture = 0
gpgpu_n_mem_const = 1
gpgpu_n_load_insn  = 0
gpgpu_n_store_insn = 3072
gpgpu_n_shmem_insn = 0
gpgpu_n_sstarr_insn = 0
gpgpu_n_tex_insn = 0
gpgpu_n_const_mem_insn = 0
gpgpu_n_param_mem_insn = 6144
gpgpu_n_shmem_bkconflict = 0
gpgpu_n_cache_bkconflict = 0
gpgpu_n_intrawarp_mshr_merge = 0
gpgpu_n_cmem_portconflict = 200
gpgpu_stall_shd_mem[c_mem][resource_stall] = 200
gpgpu_stall_shd_mem[s_mem][bk_conf] = 0
gpgpu_stall_shd_mem[gl_mem][resource_stall] = 0
gpgpu_stall_shd_mem[gl_mem][coal_stall] = 96
gpgpu_stall_shd_mem[gl_mem][data_port_stall] = 0
gpu_reg_bank_conflict_stalls = 0
Warp Occupancy Distribution:
Stall:1895	W0_Idle:1569	W0_Scoreboard:144	W1:0	W2:0	W3:0	W4:0	W5:0	W6:0	W7:0	W8:0	W9:0	W10:0	W11:0	W12:0	W13:0	W14:0	W15:0	W16:0	W17:0	W18:0	W19:0	W20:0	W21:0	W22:0	W23:0	W24:0	W25:0	W26:0	W27:0	W28:0	W29:0	W30:0	W31:0	W32:672
single_issue_nums: WS0:336	WS1:336	
dual_issue_nums: WS0:0	WS1:0	
traffic_breakdown_coretomem[CONST_ACC_R] = 8 {8:1,}
traffic_breakdown_coretomem[GLOBAL_ACC_W] = 26112 {136:192,}
traffic_breakdown_coretomem[INST_ACC_R] = 24 {8:3,}
traffic_breakdown_memtocore[CONST_ACC_R] = 72 {72:1,}
traffic_breakdown_memtocore[GLOBAL_ACC_W] = 1536 {8:192,}
traffic_breakdown_memtocore[INST_ACC_R] = 408 {136:3,}
maxmflatency = 327 
max_icnt2mem_latency = 24 
maxmrqlatency = 69 
max_icnt2sh_latency = 12 
averagemflatency = 270 
avg_icnt2mem_latency = 24 
avg_mrq_latency = 8 
avg_icnt2sh_latency = 9 
mrq_lat_table:138 	7 	122 	42 	54 	24 	1 	0 	0 	0 	0 	0 	0 	0 	0 	0 	0 	0 	0 	0 	0 	0 	0 	0 	0 	0 	0 	0 	0 	0 	0 	0 	
dq_lat_table:0 	0 	0 	0 	0 	0 	0 	0 	0 	0 	0 	0 	0 	0 	0 	0 	0 	0 	0 	0 	0 	0 	0 	0 	0 	0 	0 	0 	0 	0 	0 	0 	
mf_lat_table:0 	0 	0 	0 	0 	0 	0 	0 	193 	0 	0 	0 	0 	0 	0 	0 	0 	0 	0 	0 	0 	0 	0 	0 	0 	0 	0 	0 	0 	0 	0 	0 	
icnt2mem_lat_table:0 	0 	0 	4 	192 	0 	0 	0 	0 	0 	0 	0 	0 	0 	0 	0 	0 	0 	0 	0 	0 	0 	0 	0 	
icnt2sh_lat_table:0 	0 	0 	193 	0 	0 	0 	0 	0 	0 	0 	0 	0 	0 	0 	0 	0 	0 	0 	0 	0 	0 	0 	0 	
mf_lat_pw_table:0 	0 	0 	0 	0 	0 	0 	0 	3 	0 	0 	0 	0 	0 	0 	0 	0 	0 	0 	0 	0 	0 	0 	0 	0 	0 	0 	0 	0 	0 	0 	0 	
maximum concurrent accesses to same row:
dram[0]:         1         0         0         0         0         0         0         0         0         0         0         0         0         0         0         0 
dram[1]:         0         1         0         0         0         0         0         0         0         0         0         0         0         0         0         0 
dram[2]:         1         2         0         0         0         0         0         0         0         0         0         0         0         0         0         0 
dram[3]:         0         0         0         0         0         0         0         0         0         0         0         0         0         0         0         0 
dram[4]:         0         0         0         0         0         0         0         0         0         0         0         0         0         0         0         0 
dram[5]:         0         0         0         0         0         0         0         0         0         0         0         0         0         0         0         0 
dram[6]:         0         0         0         0         0         0         0         0         0         0         0         0         0         0         0         0 
dram[7]:         0         0         0         0         0         0         0         0         0         0         0         0         0         0         0         0 
maximum service time to same row:
dram[0]:       940       934         0         0         0         0         0         0         0         0         0         0         0         0         0         0 
dram[1]:       952       714         0         0         0         0         0         0         0         0         0         0         0         0         0         0 
dram[2]:       546       958         0         0         0         0         0         0         0         0         0         0         0         0         0         0 
dram[3]:       976       970         0         0         0         0         0         0         0         0         0         0         0         0         0         0 
dram[4]:      1003       996         0         0         0         0         0         0         0         0         0         0         0         0         0         0 
dram[5]:      1062      1057         0         0         0         0         0         0         0         0         0         0         0         0         0         0 
dram[6]:      1014      1008         0         0         0         0         0         0         0         0         0         0         0         0         0         0 
dram[7]:       988       983         0         0         0         0         0         0         0         0         0         0         0         0         0         0 
average row accesses per activate:
dram[0]: 25.000000 24.000000      -nan      -nan      -nan      -nan      -nan      -nan      -nan      -nan      -nan      -nan      -nan      -nan      -nan      -nan 
dram[1]: 24.000000 12.500000      -nan      -nan      -nan      -nan      -nan      -nan      -nan      -nan      -nan      -nan      -nan      -nan      -nan      -nan 
dram[2]: 12.500000  8.333333      -nan      -nan      -nan      -nan      -nan      -nan      -nan      -nan      -nan      -nan      -nan      -nan      -nan      -nan 
dram[3]: 24.000000 24.000000      -nan      -nan      -nan      -nan      -nan      -nan      -nan      -nan      -nan      -nan      -nan      -nan      -nan      -nan 
dram[4]: 24.000000 24.000000      -nan      -nan      -nan      -nan      -nan      -nan      -nan      -nan      -nan      -nan      -nan      -nan      -nan      -nan 
dram[5]: 24.000000 24.000000      -nan      -nan      -nan      -nan      -nan      -nan      -nan      -nan      -nan      -nan      -nan      -nan      -nan      -nan 
dram[6]: 24.000000 24.000000      -nan      -nan      -nan      -nan      -nan      -nan      -nan      -nan      -nan      -nan      -nan      -nan      -nan      -nan 
dram[7]: 24.000000 24.000000      -nan      -nan      -nan      -nan      -nan      -nan      -nan      -nan      -nan      -nan      -nan      -nan      -nan      -nan 
average row locality = 388/20 = 19.400000
number of total memory accesses made:
dram[0]:         0         0         0         0         0         0         0         0         0         0         0         0         0         0         0         0 
dram[1]:         0         0         0         0         0         0         0         0         0         0         0         0         0         0         0         0 
dram[2]:         0         0         0         0         0         0         0         0         0         0         0         0         0         0         0         0 
dram[3]:         0         0         0         0         0         0         0         0         0         0         0         0         0         0         0         0 
dram[4]:         0         0         0         0         0         0         0         0         0         0         0         0         0         0         0         0 
dram[5]:         0         0         0         0         0         0         0         0         0         0         0         0         0         0         0         0 
dram[6]:         0         0         0         0         0         0         0         0         0         0         0         0         0         0         0         0 
dram[7]:         0         0         0         0         0         0         0         0         0         0         0         0         0         0         0         0 
total accesses: 0
min_bank_accesses = 0!
min_chip_accesses = 0!
number of total read accesses:
dram[0]:        52        48         0         0         0         0         0         0         0         0         0         0         0         0         0         0 
dram[1]:        48        52         0         0         0         0         0         0         0         0         0         0         0         0         0         0 
dram[2]:        52        52         0         0         0         0         0         0         0         0         0         0         0         0         0         0 
dram[3]:        48        48         0         0         0         0         0         0         0         0         0         0         0         0         0         0 
dram[4]:        48        48         0         0         0         0         0         0         0         0         0         0         0         0         0         0 
dram[5]:        48        48         0         0         0         0         0         0         0         0         0         0         0         0         0         0 
dram[6]:        48        48         0         0         0         0         0         0         0         0         0         0         0         0         0         0 
dram[7]:        48        48         0         0         0         0         0         0         0         0         0         0         0         0         0         0 
total dram reads = 784
min_bank_accesses = 0!
chip skew: 104/96 = 1.08
number of total write accesses:
dram[0]:        48        48         0         0         0         0         0         0         0         0         0         0         0         0         0         0 
dram[1]:        48        48         0         0         0         0         0         0         0         0         0         0         0         0         0         0 
dram[2]:        48        48         0         0         0         0         0         0         0         0         0         0         0         0         0         0 
dram[3]:        48        48         0         0         0         0         0         0         0         0         0         0         0         0         0         0 
dram[4]:        48        48         0         0         0         0         0         0         0         0         0         0         0         0         0         0 
dram[5]:        48        48         0         0         0         0         0         0         0         0         0         0         0         0         0         0 
dram[6]:        48        48         0         0         0         0         0         0         0         0         0         0         0         0         0         0 
dram[7]:        48        48         0         0         0         0         0         0         0         0         0         0         0         0         0         0 
total dram writes = 768
min_bank_accesses = 0!
chip skew: 96/96 = 1.00
average mf latency per bank:
dram[0]:         35        34    none      none      none      none      none      none      none      none      none      none      none      none      none      none  
dram[1]:         33        32    none      none      none      none      none      none      none      none      none      none      none      none      none      none  
dram[2]:         32        33    none      none      none      none      none      none      none      none      none      none      none      none      none      none  
dram[3]:         33        33    none      none      none      none      none      none      none      none      none      none      none      none      none      none  
dram[4]:         34        35    none      none      none      none      none      none      none      none      none      none      none      none      none      none  
dram[5]:         33        33    none      none      none      none      none      none      none      none      none      none      none      none      none      none  
dram[6]:         34        34    none      none      none      none      none      none      none      none      none      none      none      none      none      none  
dram[7]:         33        33    none      none      none      none      none      none      none      none      none      none      none      none      none      none  
maximum mf latency per bank:
dram[0]:        299       309         0         0         0         0         0         0         0         0         0         0         0         0         0         0
dram[1]:        277       288         0         0         0         0         0         0         0         0         0         0         0         0         0         0
dram[2]:        287       297         0         0         0         0         0         0         0         0         0         0         0         0         0         0
dram[3]:        283       283         0         0         0         0         0         0         0         0         0         0         0         0         0         0
dram[4]:        318       327         0         0         0         0         0         0         0         0         0         0         0         0         0         0
dram[5]:        277       288         0         0         0         0         0         0         0         0         0         0         0         0         0         0
dram[6]:        298       311         0         0         0         0         0         0         0         0         0         0         0         0         0         0
dram[7]:        298       309         0         0         0         0         0         0         0         0         0         0         0         0         0         0
Memory Partition 0: 
Cache L2_bank_000:
MSHR contents

Cache L2_bank_001:
MSHR contents

In Dram Latency Queue (total = 0): 
DRAM[0]: 16 bks, busW=4 BL=8 CL=12, tRRD=6 tCCD=2, tRCD=12 tRAS=28 tRP=12 tRC=40
n_cmd=3330 n_nop=3130 n_act=3 n_pre=1 n_ref_event=0 n_req=49 n_rd=4 n_rd_L2_A=96 n_write=96 n_wr_bk=0 bw_util=0.1177
n_activity=689 dram_eff=0.5689
bk0: 52a 2902i bk1: 48a 2823i bk2: 0a 3329i bk3: 0a 3330i bk4: 0a 3330i bk5: 0a 3330i bk6: 0a 3330i bk7: 0a 3330i bk8: 0a 3330i bk9: 0a 3330i bk10: 0a 3330i bk11: 0a 3330i bk12: 0a 3330i bk13: 0a 3330i bk14: 0a 3330i bk15: 0a 3331i 

------------------------------------------------------------------------

Row_Buffer_Locality = 0.959184
Row_Buffer_Locality_read = 1.000000
Row_Buffer_Locality_write = 0.916667
Bank_Level_Parallism = 1.682051
Bank_Level_Parallism_Col = 1.662093
Bank_Level_Parallism_Ready = 1.324873
write_to_read_ratio_blp_rw_average = 0.380789
GrpLevelPara = 1.000000 

BW Util details:
bwutil = 0.117718 
total_CMD = 3330 
util_bw = 392 
Wasted_Col = 202 
Wasted_Row = 0 
Idle = 2736 

BW Util Bottlenecks: 
RCDc_limit = 12 
RCDWRc_limit = 11 
WTRc_limit = 226 
RTWc_limit = 95 
CCDLc_limit = 0 
rwq = 0 
CCDLc_limit_alone = 0 
WTRc_limit_alone = 226 
RTWc_limit_alone = 95 

Commands details: 
total_CMD = 3330 
n_nop = 3130 
Read = 4 
Write = 96 
L2_Alloc = 96 
L2_WB = 0 
n_act = 3 
n_pre = 1 
n_ref = 0 
n_req = 49 
total_req = 196 

Dual Bus Interface Util: 
issued_total_row = 4 
issued_total_col = 196 
Row_Bus_Util =  0.001201 
CoL_Bus_Util = 0.058859 
Either_Row_CoL_Bus_Util = 0.060060 
Issued_on_Two_Bus_Simul_Util = 0.000000 
issued_two_Eff = 0.000000 
queue_avg = 0.208709 


dram_util_bins: 0 0 0 0 0 0 0 0 0 0
dram_eff_bins: 0 0 0 0 0 0 0 0 0 0
mrqq: max=6 avg=0.208709
Memory Partition 1: 
Cache L2_bank_002:
MSHR contents

Cache L2_bank_003:
MSHR contents

In Dram Latency Queue (total = 0): 
DRAM[1]: 16 bks, busW=4 BL=8 CL=12, tRRD=6 tCCD=2, tRCD=12 tRAS=28 tRP=12 tRC=40
n_cmd=3330 n_nop=3130 n_act=3 n_pre=1 n_ref_event=0 n_req=49 n_rd=4 n_rd_L2_A=96 n_write=96 n_wr_bk=0 bw_util=0.1177
n_activity=680 dram_eff=0.5765
bk0: 48a 2983i bk1: 52a 2795i bk2: 0a 3326i bk3: 0a 3330i bk4: 0a 3330i bk5: 0a 3330i bk6: 0a 3330i bk7: 0a 3330i bk8: 0a 3330i bk9: 0a 3330i bk10: 0a 3330i bk11: 0a 3330i bk12: 0a 3330i bk13: 0a 3330i bk14: 0a 3330i bk15: 0a 3331i 

------------------------------------------------------------------------

Row_Buffer_Locality = 0.938776
Row_Buffer_Locality_read = 0.960000
Row_Buffer_Locality_write = 0.916667
Bank_Level_Parallism = 1.662500
Bank_Level_Parallism_Col = 1.663024
Bank_Level_Parallism_Ready = 1.311224
write_to_read_ratio_blp_rw_average = 0.318761
GrpLevelPara = 1.000000 

BW Util details:
bwutil = 0.117718 
total_CMD = 3330 
util_bw = 392 
Wasted_Col = 169 
Wasted_Row = 9 
Idle = 2760 

BW Util Bottlenecks: 
RCDc_limit = 12 
RCDWRc_limit = 8 
WTRc_limit = 228 
RTWc_limit = 56 
CCDLc_limit = 0 
rwq = 0 
CCDLc_limit_alone = 0 
WTRc_limit_alone = 228 
RTWc_limit_alone = 56 

Commands details: 
total_CMD = 3330 
n_nop = 3130 
Read = 4 
Write = 96 
L2_Alloc = 96 
L2_WB = 0 
n_act = 3 
n_pre = 1 
n_ref = 0 
n_req = 49 
total_req = 196 

Dual Bus Interface Util: 
issued_total_row = 4 
issued_total_col = 196 
Row_Bus_Util =  0.001201 
CoL_Bus_Util = 0.058859 
Either_Row_CoL_Bus_Util = 0.060060 
Issued_on_Two_Bus_Simul_Util = 0.000000 
issued_two_Eff = 0.000000 
queue_avg = 0.110210 


dram_util_bins: 0 0 0 0 0 0 0 0 0 0
dram_eff_bins: 0 0 0 0 0 0 0 0 0 0
mrqq: max=4 avg=0.11021
Memory Partition 2: 
Cache L2_bank_004:
MSHR contents

Cache L2_bank_005:
MSHR contents

In Dram Latency Queue (total = 0): 
DRAM[2]: 16 bks, busW=4 BL=8 CL=12, tRRD=6 tCCD=2, tRCD=12 tRAS=28 tRP=12 tRC=40
n_cmd=3330 n_nop=3122 n_act=5 n_pre=3 n_ref_event=0 n_req=50 n_rd=8 n_rd_L2_A=96 n_write=96 n_wr_bk=0 bw_util=0.1201
n_activity=720 dram_eff=0.5556
bk0: 52a 2862i bk1: 52a 2770i bk2: 0a 3326i bk3: 0a 3330i bk4: 0a 3330i bk5: 0a 3330i bk6: 0a 3330i bk7: 0a 3330i bk8: 0a 3330i bk9: 0a 3330i bk10: 0a 3330i bk11: 0a 3330i bk12: 0a 3330i bk13: 0a 3330i bk14: 0a 3330i bk15: 0a 3331i 

------------------------------------------------------------------------

Row_Buffer_Locality = 0.900000
Row_Buffer_Locality_read = 0.923077
Row_Buffer_Locality_write = 0.875000
Bank_Level_Parallism = 1.730337
Bank_Level_Parallism_Col = 1.694444
Bank_Level_Parallism_Ready = 1.340000
write_to_read_ratio_blp_rw_average = 0.390523
GrpLevelPara = 1.000000 

BW Util details:
bwutil = 0.120120 
total_CMD = 3330 
util_bw = 400 
Wasted_Col = 221 
Wasted_Row = 9 
Idle = 2700 

BW Util Bottlenecks: 
RCDc_limit = 19 
RCDWRc_limit = 11 
WTRc_limit = 224 
RTWc_limit = 125 
CCDLc_limit = 0 
rwq = 0 
CCDLc_limit_alone = 0 
WTRc_limit_alone = 224 
RTWc_limit_alone = 125 

Commands details: 
total_CMD = 3330 
n_nop = 3122 
Read = 8 
Write = 96 
L2_Alloc = 96 
L2_WB = 0 
n_act = 5 
n_pre = 3 
n_ref = 0 
n_req = 50 
total_req = 200 

Dual Bus Interface Util: 
issued_total_row = 8 
issued_total_col = 200 
Row_Bus_Util =  0.002402 
CoL_Bus_Util = 0.060060 
Either_Row_CoL_Bus_Util = 0.062462 
Issued_on_Two_Bus_Simul_Util = 0.000000 
issued_two_Eff = 0.000000 
queue_avg = 0.214114 


dram_util_bins: 0 0 0 0 0 0 0 0 0 0
dram_eff_bins: 0 0 0 0 0 0 0 0 0 0
mrqq: max=5 avg=0.214114
Memory Partition 3: 
Cache L2_bank_006:
MSHR contents

Cache L2_bank_007:
MSHR contents

In Dram Latency Queue (total = 0): 
DRAM[3]: 16 bks, busW=4 BL=8 CL=12, tRRD=6 tCCD=2, tRCD=12 tRAS=28 tRP=12 tRC=40
n_cmd=3330 n_nop=3136 n_act=2 n_pre=0 n_ref_event=0 n_req=48 n_rd=0 n_rd_L2_A=96 n_write=96 n_wr_bk=0 bw_util=0.1153
n_activity=634 dram_eff=0.6057
bk0: 48a 3018i bk1: 48a 2830i bk2: 0a 3328i bk3: 0a 3330i bk4: 0a 3330i bk5: 0a 3330i bk6: 0a 3330i bk7: 0a 3330i bk8: 0a 3330i bk9: 0a 3330i bk10: 0a 3330i bk11: 0a 3330i bk12: 0a 3330i bk13: 0a 3330i bk14: 0a 3330i bk15: 0a 3331i 

------------------------------------------------------------------------

Row_Buffer_Locality = 0.958333
Row_Buffer_Locality_read = 1.000000
Row_Buffer_Locality_write = 0.916667
Bank_Level_Parallism = 1.641221
Bank_Level_Parallism_Col = 1.640535
Bank_Level_Parallism_Ready = 1.290155
write_to_read_ratio_blp_rw_average = 0.306883
GrpLevelPara = 1.000000 

BW Util details:
bwutil = 0.115315 
total_CMD = 3330 
util_bw = 384 
Wasted_Col = 150 
Wasted_Row = 0 
Idle = 2796 

BW Util Bottlenecks: 
RCDc_limit = 0 
RCDWRc_limit = 8 
WTRc_limit = 230 
RTWc_limit = 36 
CCDLc_limit = 0 
rwq = 0 
CCDLc_limit_alone = 0 
WTRc_limit_alone = 230 
RTWc_limit_alone = 36 

Commands details: 
total_CMD = 3330 
n_nop = 3136 
Read = 0 
Write = 96 
L2_Alloc = 96 
L2_WB = 0 
n_act = 2 
n_pre = 0 
n_ref = 0 
n_req = 48 
total_req = 192 

Dual Bus Interface Util: 
issued_total_row = 2 
issued_total_col = 192 
Row_Bus_Util =  0.000601 
CoL_Bus_Util = 0.057658 
Either_Row_CoL_Bus_Util = 0.058258 
Issued_on_Two_Bus_Simul_Util = 0.000000 
issued_two_Eff = 0.000000 
queue_avg = 0.082883 


dram_util_bins: 0 0 0 0 0 0 0 0 0 0
dram_eff_bins: 0 0 0 0 0 0 0 0 0 0
mrqq: max=4 avg=0.0828829
Memory Partition 4: 
Cache L2_bank_008:
MSHR contents

Cache L2_bank_009:
MSHR contents

In Dram Latency Queue (total = 0): 
DRAM[4]: 16 bks, busW=4 BL=8 CL=12, tRRD=6 tCCD=2, tRCD=12 tRAS=28 tRP=12 tRC=40
n_cmd=3330 n_nop=3136 n_act=2 n_pre=0 n_ref_event=0 n_req=48 n_rd=0 n_rd_L2_A=96 n_write=96 n_wr_bk=0 bw_util=0.1153
n_activity=625 dram_eff=0.6144
bk0: 48a 2857i bk1: 48a 2773i bk2: 0a 3328i bk3: 0a 3330i bk4: 0a 3330i bk5: 0a 3330i bk6: 0a 3330i bk7: 0a 3330i bk8: 0a 3330i bk9: 0a 3330i bk10: 0a 3330i bk11: 0a 3330i bk12: 0a 3330i bk13: 0a 3330i bk14: 0a 3330i bk15: 0a 3331i 

------------------------------------------------------------------------

Row_Buffer_Locality = 0.958333
Row_Buffer_Locality_read = 1.000000
Row_Buffer_Locality_write = 0.916667
Bank_Level_Parallism = 1.855422
Bank_Level_Parallism_Col = 1.855172
Bank_Level_Parallism_Ready = 1.416667
write_to_read_ratio_blp_rw_average = 0.437069
GrpLevelPara = 1.000000 

BW Util details:
bwutil = 0.115315 
total_CMD = 3330 
util_bw = 384 
Wasted_Col = 201 
Wasted_Row = 0 
Idle = 2745 

BW Util Bottlenecks: 
RCDc_limit = 0 
RCDWRc_limit = 9 
WTRc_limit = 222 
RTWc_limit = 155 
CCDLc_limit = 0 
rwq = 0 
CCDLc_limit_alone = 0 
WTRc_limit_alone = 222 
RTWc_limit_alone = 155 

Commands details: 
total_CMD = 3330 
n_nop = 3136 
Read = 0 
Write = 96 
L2_Alloc = 96 
L2_WB = 0 
n_act = 2 
n_pre = 0 
n_ref = 0 
n_req = 48 
total_req = 192 

Dual Bus Interface Util: 
issued_total_row = 2 
issued_total_col = 192 
Row_Bus_Util =  0.000601 
CoL_Bus_Util = 0.057658 
Either_Row_CoL_Bus_Util = 0.058258 
Issued_on_Two_Bus_Simul_Util = 0.000000 
issued_two_Eff = 0.000000 
queue_avg = 0.402703 


dram_util_bins: 0 0 0 0 0 0 0 0 0 0
dram_eff_bins: 0 0 0 0 0 0 0 0 0 0
mrqq: max=8 avg=0.402703
Memory Partition 5: 
Cache L2_bank_010:
MSHR contents

Cache L2_bank_011:
MSHR contents

In Dram Latency Queue (total = 0): 
DRAM[5]: 16 bks, busW=4 BL=8 CL=12, tRRD=6 tCCD=2, tRCD=12 tRAS=28 tRP=12 tRC=40
n_cmd=3330 n_nop=3136 n_act=2 n_pre=0 n_ref_event=0 n_req=48 n_rd=0 n_rd_L2_A=96 n_write=96 n_wr_bk=0 bw_util=0.1153
n_activity=629 dram_eff=0.6105
bk0: 48a 2995i bk1: 48a 2814i bk2: 0a 3328i bk3: 0a 3330i bk4: 0a 3330i bk5: 0a 3330i bk6: 0a 3330i bk7: 0a 3330i bk8: 0a 3330i bk9: 0a 3330i bk10: 0a 3330i bk11: 0a 3330i bk12: 0a 3330i bk13: 0a 3330i bk14: 0a 3330i bk15: 0a 3331i 

------------------------------------------------------------------------

Row_Buffer_Locality = 0.958333
Row_Buffer_Locality_read = 1.000000
Row_Buffer_Locality_write = 0.916667
Bank_Level_Parallism = 1.664815
Bank_Level_Parallism_Col = 1.664193
Bank_Level_Parallism_Ready = 1.331606
write_to_read_ratio_blp_rw_average = 0.338590
GrpLevelPara = 1.000000 

BW Util details:
bwutil = 0.115315 
total_CMD = 3330 
util_bw = 384 
Wasted_Col = 165 
Wasted_Row = 0 
Idle = 2781 

BW Util Bottlenecks: 
RCDc_limit = 0 
RCDWRc_limit = 8 
WTRc_limit = 225 
RTWc_limit = 63 
CCDLc_limit = 0 
rwq = 0 
CCDLc_limit_alone = 0 
WTRc_limit_alone = 225 
RTWc_limit_alone = 63 

Commands details: 
total_CMD = 3330 
n_nop = 3136 
Read = 0 
Write = 96 
L2_Alloc = 96 
L2_WB = 0 
n_act = 2 
n_pre = 0 
n_ref = 0 
n_req = 48 
total_req = 192 

Dual Bus Interface Util: 
issued_total_row = 2 
issued_total_col = 192 
Row_Bus_Util =  0.000601 
CoL_Bus_Util = 0.057658 
Either_Row_CoL_Bus_Util = 0.058258 
Issued_on_Two_Bus_Simul_Util = 0.000000 
issued_two_Eff = 0.000000 
queue_avg = 0.098799 


dram_util_bins: 0 0 0 0 0 0 0 0 0 0
dram_eff_bins: 0 0 0 0 0 0 0 0 0 0
mrqq: max=4 avg=0.0987988
Memory Partition 6: 
Cache L2_bank_012:
MSHR contents

Cache L2_bank_013:
MSHR contents

In Dram Latency Queue (total = 0): 
DRAM[6]: 16 bks, busW=4 BL=8 CL=12, tRRD=6 tCCD=2, tRCD=12 tRAS=28 tRP=12 tRC=40
n_cmd=3330 n_nop=3136 n_act=2 n_pre=0 n_ref_event=0 n_req=48 n_rd=0 n_rd_L2_A=96 n_write=96 n_wr_bk=0 bw_util=0.1153
n_activity=628 dram_eff=0.6115
bk0: 48a 2924i bk1: 48a 2803i bk2: 0a 3328i bk3: 0a 3330i bk4: 0a 3330i bk5: 0a 3330i bk6: 0a 3330i bk7: 0a 3330i bk8: 0a 3330i bk9: 0a 3330i bk10: 0a 3330i bk11: 0a 3330i bk12: 0a 3330i bk13: 0a 3330i bk14: 0a 3330i bk15: 0a 3331i 

------------------------------------------------------------------------

Row_Buffer_Locality = 0.958333
Row_Buffer_Locality_read = 1.000000
Row_Buffer_Locality_write = 0.916667
Bank_Level_Parallism = 1.780399
Bank_Level_Parallism_Col = 1.780000
Bank_Level_Parallism_Ready = 1.352332
write_to_read_ratio_blp_rw_average = 0.383636
GrpLevelPara = 1.000000 

BW Util details:
bwutil = 0.115315 
total_CMD = 3330 
util_bw = 384 
Wasted_Col = 174 
Wasted_Row = 0 
Idle = 2772 

BW Util Bottlenecks: 
RCDc_limit = 0 
RCDWRc_limit = 8 
WTRc_limit = 224 
RTWc_limit = 100 
CCDLc_limit = 0 
rwq = 0 
CCDLc_limit_alone = 0 
WTRc_limit_alone = 224 
RTWc_limit_alone = 100 

Commands details: 
total_CMD = 3330 
n_nop = 3136 
Read = 0 
Write = 96 
L2_Alloc = 96 
L2_WB = 0 
n_act = 2 
n_pre = 0 
n_ref = 0 
n_req = 48 
total_req = 192 

Dual Bus Interface Util: 
issued_total_row = 2 
issued_total_col = 192 
Row_Bus_Util =  0.000601 
CoL_Bus_Util = 0.057658 
Either_Row_CoL_Bus_Util = 0.058258 
Issued_on_Two_Bus_Simul_Util = 0.000000 
issued_two_Eff = 0.000000 
queue_avg = 0.262763 


dram_util_bins: 0 0 0 0 0 0 0 0 0 0
dram_eff_bins: 0 0 0 0 0 0 0 0 0 0
mrqq: max=6 avg=0.262763
Memory Partition 7: 
Cache L2_bank_014:
MSHR contents
MSHR: tag=0xc0005f00, atomic=0 1 entries : 0x7f8170251080 :  mf: uid=  1128, sid00:w31, part=7, addr=0xc0005f00, load , size=128, unknown  status = IN_PARTITION_DRAM (2139), 

Cache L2_bank_015:
MSHR contents
MSHR: tag=0xc0005f80, atomic=0 1 entries : 0x7f8170271870 :  mf: uid=  1127, sid00:w31, part=7, addr=0xc0005f80, load , size=128, unknown  status = IN_PARTITION_DRAM (2140), 

In Dram Latency Queue (total = 0): 
DRAM[7]: 16 bks, busW=4 BL=8 CL=12, tRRD=6 tCCD=2, tRCD=12 tRAS=28 tRP=12 tRC=40
n_cmd=3330 n_nop=3139 n_act=2 n_pre=0 n_ref_event=0 n_req=48 n_rd=0 n_rd_L2_A=93 n_write=96 n_wr_bk=0 bw_util=0.1135
n_activity=616 dram_eff=0.6136
bk0: 48a 2991i bk1: 45a 2825i bk2: 0a 3328i bk3: 0a 3330i bk4: 0a 3330i bk5: 0a 3330i bk6: 0a 3330i bk7: 0a 3330i bk8: 0a 3330i bk9: 0a 3330i bk10: 0a 3330i bk11: 0a 3330i bk12: 0a 3330i bk13: 0a 3330i bk14: 0a 3330i bk15: 0a 3331i 

------------------------------------------------------------------------

Row_Buffer_Locality = 0.958333
Row_Buffer_Locality_read = 1.000000
Row_Buffer_Locality_write = 0.916667
Bank_Level_Parallism = 1.687500
Bank_Level_Parallism_Col = 1.686907
Bank_Level_Parallism_Ready = 1.315789
write_to_read_ratio_blp_rw_average = 0.333966
GrpLevelPara = 1.000000 

BW Util details:
bwutil = 0.113514 
total_CMD = 3330 
util_bw = 377 
Wasted_Col = 159 
Wasted_Row = 0 
Idle = 2794 

BW Util Bottlenecks: 
RCDc_limit = 0 
RCDWRc_limit = 8 
WTRc_limit = 229 
RTWc_limit = 56 
CCDLc_limit = 0 
rwq = 0 
CCDLc_limit_alone = 0 
WTRc_limit_alone = 229 
RTWc_limit_alone = 56 

Commands details: 
total_CMD = 3330 
n_nop = 3139 
Read = 0 
Write = 96 
L2_Alloc = 93 
L2_WB = 0 
n_act = 2 
n_pre = 0 
n_ref = 0 
n_req = 48 
total_req = 189 

Dual Bus Interface Util: 
issued_total_row = 2 
issued_total_col = 189 
Row_Bus_Util =  0.000601 
CoL_Bus_Util = 0.056757 
Either_Row_CoL_Bus_Util = 0.057357 
Issued_on_Two_Bus_Simul_Util = 0.000000 
issued_two_Eff = 0.000000 
queue_avg = 0.150751 


dram_util_bins: 0 0 0 0 0 0 0 0 0 0
dram_eff_bins: 0 0 0 0 0 0 0 0 0 0
mrqq: max=6 avg=0.150751

========= L2 cache stats =========
L2_cache_bank[0]: Access = 13, Miss = 13, Miss_rate = 1.000, Pending_hits = 0, Reservation_fails = 0
L2_cache_bank[1]: Access = 12, Miss = 12, Miss_rate = 1.000, Pending_hits = 0, Reservation_fails = 0
L2_cache_bank[2]: Access = 12, Miss = 12, Miss_rate = 1.000, Pending_hits = 0, Reservation_fails = 0
L2_cache_bank[3]: Access = 13, Miss = 13, Miss_rate = 1.000, Pending_hits = 0, Reservation_fails = 0
L2_cache_bank[4]: Access = 13, Miss = 13, Miss_rate = 1.000, Pending_hits = 0, Reservation_fails = 0
L2_cache_bank[5]: Access = 13, Miss = 13, Miss_rate = 1.000, Pending_hits = 0, Reservation_fails = 0
L2_cache_bank[6]: Access = 12, Miss = 12, Miss_rate = 1.000, Pending_hits = 0, Reservation_fails = 0
L2_cache_bank[7]: Access = 12, Miss = 12, Miss_rate = 1.000, Pending_hits = 0, Reservation_fails = 0
L2_cache_bank[8]: Access = 12, Miss = 12, Miss_rate = 1.000, Pending_hits = 0, Reservation_fails = 0
L2_cache_bank[9]: Access = 12, Miss = 12, Miss_rate = 1.000, Pending_hits = 0, Reservation_fails = 0
L2_cache_bank[10]: Access = 12, Miss = 12, Miss_rate = 1.000, Pending_hits = 0, Reservation_fails = 0
L2_cache_bank[11]: Access = 12, Miss = 12, Miss_rate = 1.000, Pending_hits = 0, Reservation_fails = 0
L2_cache_bank[12]: Access = 12, Miss = 12, Miss_rate = 1.000, Pending_hits = 0, Reservation_fails = 0
L2_cache_bank[13]: Access = 12, Miss = 12, Miss_rate = 1.000, Pending_hits = 0, Reservation_fails = 0
L2_cache_bank[14]: Access = 12, Miss = 12, Miss_rate = 1.000, Pending_hits = 0, Reservation_fails = 0
L2_cache_bank[15]: Access = 12, Miss = 12, Miss_rate = 1.000, Pending_hits = 0, Reservation_fails = 0
L2_total_cache_accesses = 196
L2_total_cache_misses = 196
L2_total_cache_miss_rate = 1.0000
L2_total_cache_pending_hits = 0
L2_total_cache_reservation_fails = 0
L2_total_cache_breakdown:
	L2_cache_stats_breakdown[GLOBAL_ACC_R][HIT] = 0
	L2_cache_stats_breakdown[GLOBAL_ACC_R][HIT_RESERVED] = 0
	L2_cache_stats_breakdown[GLOBAL_ACC_R][MISS] = 0
	L2_cache_stats_breakdown[GLOBAL_ACC_R][RESERVATION_FAIL] = 0
	L2_cache_stats_breakdown[GLOBAL_ACC_R][SECTOR_MISS] = 0
	L2_cache_stats_breakdown[GLOBAL_ACC_R][MSHR_HIT] = 0
	L2_cache_stats_breakdown[LOCAL_ACC_R][HIT] = 0
	L2_cache_stats_breakdown[LOCAL_ACC_R][HIT_RESERVED] = 0
	L2_cache_stats_breakdown[LOCAL_ACC_R][MISS] = 0
	L2_cache_stats_breakdown[LOCAL_ACC_R][RESERVATION_FAIL] = 0
	L2_cache_stats_breakdown[LOCAL_ACC_R][SECTOR_MISS] = 0
	L2_cache_stats_breakdown[LOCAL_ACC_R][MSHR_HIT] = 0
	L2_cache_stats_breakdown[CONST_ACC_R][HIT] = 0
	L2_cache_stats_breakdown[CONST_ACC_R][HIT_RESERVED] = 0
	L2_cache_stats_breakdown[CONST_ACC_R][MISS] = 1
	L2_cache_stats_breakdown[CONST_ACC_R][RESERVATION_FAIL] = 0
	L2_cache_stats_breakdown[CONST_ACC_R][SECTOR_MISS] = 0
	L2_cache_stats_breakdown[CONST_ACC_R][MSHR_HIT] = 0
	L2_cache_stats_breakdown[TEXTURE_ACC_R][HIT] = 0
	L2_cache_stats_breakdown[TEXTURE_ACC_R][HIT_RESERVED] = 0
	L2_cache_stats_breakdown[TEXTURE_ACC_R][MISS] = 0
	L2_cache_stats_breakdown[TEXTURE_ACC_R][RESERVATION_FAIL] = 0
	L2_cache_stats_breakdown[TEXTURE_ACC_R][SECTOR_MISS] = 0
	L2_cache_stats_breakdown[TEXTURE_ACC_R][MSHR_HIT] = 0
	L2_cache_stats_breakdown[GLOBAL_ACC_W][HIT] = 0
	L2_cache_stats_breakdown[GLOBAL_ACC_W][HIT_RESERVED] = 0
	L2_cache_stats_breakdown[GLOBAL_ACC_W][MISS] = 192
	L2_cache_stats_breakdown[GLOBAL_ACC_W][RESERVATION_FAIL] = 0
	L2_cache_stats_breakdown[GLOBAL_ACC_W][SECTOR_MISS] = 0
	L2_cache_stats_breakdown[GLOBAL_ACC_W][MSHR_HIT] = 0
	L2_cache_stats_breakdown[LOCAL_ACC_W][HIT] = 0
	L2_cache_stats_breakdown[LOCAL_ACC_W][HIT_RESERVED] = 0
	L2_cache_stats_breakdown[LOCAL_ACC_W][MISS] = 0
	L2_cache_stats_breakdown[LOCAL_ACC_W][RESERVATION_FAIL] = 0
	L2_cache_stats_breakdown[LOCAL_ACC_W][SECTOR_MISS] = 0
	L2_cache_stats_breakdown[LOCAL_ACC_W][MSHR_HIT] = 0
	L2_cache_stats_breakdown[L1_WRBK_ACC][HIT] = 0
	L2_cache_stats_breakdown[L1_WRBK_ACC][HIT_RESERVED] = 0
	L2_cache_stats_breakdown[L1_WRBK_ACC][MISS] = 0
	L2_cache_stats_breakdown[L1_WRBK_ACC][RESERVATION_FAIL] = 0
	L2_cache_stats_breakdown[L1_WRBK_ACC][SECTOR_MISS] = 0
	L2_cache_stats_breakdown[L1_WRBK_ACC][MSHR_HIT] = 0
	L2_cache_stats_breakdown[L2_WRBK_ACC][HIT] = 0
	L2_cache_stats_breakdown[L2_WRBK_ACC][HIT_RESERVED] = 0
	L2_cache_stats_breakdown[L2_WRBK_ACC][MISS] = 0
	L2_cache_stats_breakdown[L2_WRBK_ACC][RESERVATION_FAIL] = 0
	L2_cache_stats_breakdown[L2_WRBK_ACC][SECTOR_MISS] = 0
	L2_cache_stats_breakdown[L2_WRBK_ACC][MSHR_HIT] = 0
	L2_cache_stats_breakdown[INST_ACC_R][HIT] = 0
	L2_cache_stats_breakdown[INST_ACC_R][HIT_RESERVED] = 0
	L2_cache_stats_breakdown[INST_ACC_R][MISS] = 3
	L2_cache_stats_breakdown[INST_ACC_R][RESERVATION_FAIL] = 0
	L2_cache_stats_breakdown[INST_ACC_R][SECTOR_MISS] = 0
	L2_cache_stats_breakdown[INST_ACC_R][MSHR_HIT] = 0
	L2_cache_stats_breakdown[L1_WR_ALLOC_R][HIT] = 0
	L2_cache_stats_breakdown[L1_WR_ALLOC_R][HIT_RESERVED] = 0
	L2_cache_stats_breakdown[L1_WR_ALLOC_R][MISS] = 0
	L2_cache_stats_breakdown[L1_WR_ALLOC_R][RESERVATION_FAIL] = 0
	L2_cache_stats_breakdown[L1_WR_ALLOC_R][SECTOR_MISS] = 0
	L2_cache_stats_breakdown[L1_WR_ALLOC_R][MSHR_HIT] = 0
	L2_cache_stats_breakdown[L2_WR_ALLOC_R][HIT] = 0
	L2_cache_stats_breakdown[L2_WR_ALLOC_R][HIT_RESERVED] = 0
	L2_cache_stats_breakdown[L2_WR_ALLOC_R][MISS] = 0
	L2_cache_stats_breakdown[L2_WR_ALLOC_R][RESERVATION_FAIL] = 0
	L2_cache_stats_breakdown[L2_WR_ALLOC_R][SECTOR_MISS] = 0
	L2_cache_stats_breakdown[L2_WR_ALLOC_R][MSHR_HIT] = 0
	L2_cache_stats_breakdown[CONST_ACC_R][TOTAL_ACCESS] = 1
	L2_cache_stats_breakdown[GLOBAL_ACC_W][TOTAL_ACCESS] = 192
	L2_cache_stats_breakdown[INST_ACC_R][TOTAL_ACCESS] = 3
L2_total_cache_reservation_fail_breakdown:
L2_cache_data_port_util = 0.000
L2_cache_fill_port_util = 0.023

icnt_total_pkts_mem_to_simt=210
icnt_total_pkts_simt_to_mem=964
LD_mem_lat_dist  0 0 0 0 0 0 0 0 0 0 0 0 0 0 0 0 0 0 0 0 0 0 0 0 0 0 0
ST_mem_lat_dist  0 0 0 0 0 0 0 0 0 0 0 0 0 0 0 0 0 0 0 0 0 0 0 0 0 0 0
----------------------------Interconnect-DETAILS--------------------------------
Class 0:
Packet latency average = 12.969388
	minimum = 6.000000
	maximum = 21.000000
Network latency average = 10.517857
	minimum = 6.000000
	maximum = 16.000000
Slowest packet = 7
Flit latency average = 9.747019
	minimum = 6.000000
	maximum = 12.000000
Slowest flit = 67
Fragmentation average = 0.000000
	minimum = 0.000000
	maximum = 0.000000
Injected packet rate average = 0.003662
	minimum = 0.000000 (at node 1)
	maximum = 0.091546 (at node 0)
Accepted packet rate average = 0.003662
	minimum = 0.000000 (at node 1)
	maximum = 0.091546 (at node 0)
Injected flit rate average = 0.010967
	minimum = 0.000000 (at node 1)
	maximum = 0.450257 (at node 0)
Accepted flit rate average= 0.010967
	minimum = 0.000000 (at node 1)
	maximum = 0.098085 (at node 0)
Injected packet length average = 2.994898
Accepted packet length average = 2.994898
Total in-flight flits = 0 (0 measured)
====== Overall Traffic Statistics ======
====== Traffic class 0 ======
Packet latency average = 12.969388 (1 samples)
	minimum = 6.000000 (1 samples)
	maximum = 21.000000 (1 samples)
Network latency average = 10.517857 (1 samples)
	minimum = 6.000000 (1 samples)
	maximum = 16.000000 (1 samples)
Flit latency average = 9.747019 (1 samples)
	minimum = 6.000000 (1 samples)
[...]
issued_total_col = 210 
Row_Bus_Util =  0.000065 
CoL_Bus_Util = 0.001696 
Either_Row_CoL_Bus_Util = 0.001761 
Issued_on_Two_Bus_Simul_Util = 0.000000 
issued_two_Eff = 0.000000 
queue_avg = 0.003118 


dram_util_bins: 0 0 0 0 0 0 0 0 0 0
dram_eff_bins: 0 0 0 0 0 0 0 0 0 0
mrqq: max=4 avg=0.00311793
Memory Partition 2: 
Cache L2_bank_004:
MSHR contents

Cache L2_bank_005:
MSHR contents

In Dram Latency Queue (total = 0): 
DRAM[2]: 16 bks, busW=4 BL=8 CL=12, tRRD=6 tCCD=2, tRCD=12 tRAS=28 tRP=12 tRC=40
n_cmd=123800 n_nop=123574 n_act=5 n_pre=3 n_ref_event=0 n_req=62 n_rd=8 n_rd_L2_A=104 n_write=106 n_wr_bk=0 bw_util=0.003522
n_activity=844 dram_eff=0.5166
bk0: 56a 123317i bk1: 56a 123224i bk2: 0a 123796i bk3: 0a 123800i bk4: 0a 123800i bk5: 0a 123800i bk6: 0a 123800i bk7: 0a 123800i bk8: 0a 123800i bk9: 0a 123800i bk10: 0a 123800i bk11: 0a 123800i bk12: 0a 123800i bk13: 0a 123800i bk14: 0a 123800i bk15: 0a 123801i 

------------------------------------------------------------------------

Row_Buffer_Locality = 0.919355
Row_Buffer_Locality_read = 0.928571
Row_Buffer_Locality_write = 0.911765
Bank_Level_Parallism = 1.683183
Bank_Level_Parallism_Col = 1.648855
Bank_Level_Parallism_Ready = 1.311927
write_to_read_ratio_blp_rw_average = 0.380153
GrpLevelPara = 1.000000 

BW Util details:
bwutil = 0.003522 
total_CMD = 123800 
util_bw = 436 
Wasted_Col = 239 
Wasted_Row = 9 
Idle = 123116 

BW Util Bottlenecks: 
RCDc_limit = 19 
RCDWRc_limit = 11 
WTRc_limit = 242 
RTWc_limit = 125 
CCDLc_limit = 0 
rwq = 0 
CCDLc_limit_alone = 0 
WTRc_limit_alone = 242 
RTWc_limit_alone = 125 

Commands details: 
total_CMD = 123800 
n_nop = 123574 
Read = 8 
Write = 106 
L2_Alloc = 104 
L2_WB = 0 
n_act = 5 
n_pre = 3 
n_ref = 0 
n_req = 62 
total_req = 218 

Dual Bus Interface Util: 
issued_total_row = 8 
issued_total_col = 218 
Row_Bus_Util =  0.000065 
CoL_Bus_Util = 0.001761 
Either_Row_CoL_Bus_Util = 0.001826 
Issued_on_Two_Bus_Simul_Util = 0.000000 
issued_two_Eff = 0.000000 
queue_avg = 0.005759 


dram_util_bins: 0 0 0 0 0 0 0 0 0 0
dram_eff_bins: 0 0 0 0 0 0 0 0 0 0
mrqq: max=5 avg=0.00575929
Memory Partition 3: 
Cache L2_bank_006:
MSHR contents

Cache L2_bank_007:
MSHR contents

In Dram Latency Queue (total = 0): 
DRAM[3]: 16 bks, busW=4 BL=8 CL=12, tRRD=6 tCCD=2, tRCD=12 tRAS=28 tRP=12 tRC=40
n_cmd=123800 n_nop=123589 n_act=2 n_pre=0 n_ref_event=0 n_req=59 n_rd=0 n_rd_L2_A=104 n_write=105 n_wr_bk=0 bw_util=0.003376
n_activity=760 dram_eff=0.55
bk0: 52a 123462i bk1: 52a 123284i bk2: 0a 123798i bk3: 0a 123800i bk4: 0a 123800i bk5: 0a 123800i bk6: 0a 123800i bk7: 0a 123800i bk8: 0a 123800i bk9: 0a 123800i bk10: 0a 123800i bk11: 0a 123800i bk12: 0a 123800i bk13: 0a 123800i bk14: 0a 123800i bk15: 0a 123801i 

------------------------------------------------------------------------

Row_Buffer_Locality = 0.966102
Row_Buffer_Locality_read = 1.000000
Row_Buffer_Locality_write = 0.939394
Bank_Level_Parallism = 1.582322
Bank_Level_Parallism_Col = 1.581597
Bank_Level_Parallism_Ready = 1.266667
write_to_read_ratio_blp_rw_average = 0.313368
GrpLevelPara = 1.000000 

BW Util details:
bwutil = 0.003376 
total_CMD = 123800 
util_bw = 418 
Wasted_Col = 178 
Wasted_Row = 0 
Idle = 123204 

BW Util Bottlenecks: 
RCDc_limit = 0 
RCDWRc_limit = 8 
WTRc_limit = 248 
RTWc_limit = 46 
CCDLc_limit = 0 
rwq = 0 
CCDLc_limit_alone = 0 
WTRc_limit_alone = 248 
RTWc_limit_alone = 46 

Commands details: 
total_CMD = 123800 
n_nop = 123589 
Read = 0 
Write = 105 
L2_Alloc = 104 
L2_WB = 0 
n_act = 2 
n_pre = 0 
n_ref = 0 
n_req = 59 
total_req = 209 

Dual Bus Interface Util: 
issued_total_row = 2 
issued_total_col = 209 
Row_Bus_Util =  0.000016 
CoL_Bus_Util = 0.001688 
Either_Row_CoL_Bus_Util = 0.001704 
Issued_on_Two_Bus_Simul_Util = 0.000000 
issued_two_Eff = 0.000000 
queue_avg = 0.002294 


dram_util_bins: 0 0 0 0 0 0 0 0 0 0
dram_eff_bins: 0 0 0 0 0 0 0 0 0 0
mrqq: max=4 avg=0.00229402
Memory Partition 4: 
Cache L2_bank_008:
MSHR contents

Cache L2_bank_009:
MSHR contents

In Dram Latency Queue (total = 0): 
DRAM[4]: 16 bks, busW=4 BL=8 CL=12, tRRD=6 tCCD=2, tRCD=12 tRAS=28 tRP=12 tRC=40
n_cmd=123800 n_nop=123592 n_act=2 n_pre=0 n_ref_event=0 n_req=56 n_rd=0 n_rd_L2_A=104 n_write=102 n_wr_bk=0 bw_util=0.003328
n_activity=725 dram_eff=0.5683
bk0: 52a 123312i bk1: 52a 123228i bk2: 0a 123798i bk3: 0a 123800i bk4: 0a 123800i bk5: 0a 123800i bk6: 0a 123800i bk7: 0a 123800i bk8: 0a 123800i bk9: 0a 123800i bk10: 0a 123800i bk11: 0a 123800i bk12: 0a 123800i bk13: 0a 123800i bk14: 0a 123800i bk15: 0a 123801i 

------------------------------------------------------------------------

Row_Buffer_Locality = 0.964286
Row_Buffer_Locality_read = 1.000000
Row_Buffer_Locality_write = 0.933333
Bank_Level_Parallism = 1.802908
Bank_Level_Parallism_Col = 1.802589
Bank_Level_Parallism_Ready = 1.388350
write_to_read_ratio_blp_rw_average = 0.419903
GrpLevelPara = 1.000000 

BW Util details:
bwutil = 0.003328 
total_CMD = 123800 
util_bw = 412 
Wasted_Col = 219 
Wasted_Row = 0 
Idle = 123169 

BW Util Bottlenecks: 
RCDc_limit = 0 
RCDWRc_limit = 9 
WTRc_limit = 240 
RTWc_limit = 155 
CCDLc_limit = 0 
rwq = 0 
CCDLc_limit_alone = 0 
WTRc_limit_alone = 240 
RTWc_limit_alone = 155 

Commands details: 
total_CMD = 123800 
n_nop = 123592 
Read = 0 
Write = 102 
L2_Alloc = 104 
L2_WB = 0 
n_act = 2 
n_pre = 0 
n_ref = 0 
n_req = 56 
total_req = 206 

Dual Bus Interface Util: 
issued_total_row = 2 
issued_total_col = 206 
Row_Bus_Util =  0.000016 
CoL_Bus_Util = 0.001664 
Either_Row_CoL_Bus_Util = 0.001680 
Issued_on_Two_Bus_Simul_Util = 0.000000 
issued_two_Eff = 0.000000 
queue_avg = 0.010832 


dram_util_bins: 0 0 0 0 0 0 0 0 0 0
dram_eff_bins: 0 0 0 0 0 0 0 0 0 0
mrqq: max=8 avg=0.010832
Memory Partition 5: 
Cache L2_bank_010:
MSHR contents

Cache L2_bank_011:
MSHR contents

In Dram Latency Queue (total = 0): 
DRAM[5]: 16 bks, busW=4 BL=8 CL=12, tRRD=6 tCCD=2, tRCD=12 tRAS=28 tRP=12 tRC=40
n_cmd=123800 n_nop=123573 n_act=6 n_pre=4 n_ref_event=0 n_req=61 n_rd=8 n_rd_L2_A=104 n_write=105 n_wr_bk=0 bw_util=0.003506
n_activity=833 dram_eff=0.521
bk0: 56a 123384i bk1: 56a 123187i bk2: 0a 123797i bk3: 0a 123800i bk4: 0a 123800i bk5: 0a 123800i bk6: 0a 123800i bk7: 0a 123800i bk8: 0a 123800i bk9: 0a 123800i bk10: 0a 123800i bk11: 0a 123800i bk12: 0a 123800i bk13: 0a 123800i bk14: 0a 123800i bk15: 0a 123802i 

------------------------------------------------------------------------

Row_Buffer_Locality = 0.901639
Row_Buffer_Locality_read = 0.928571
Row_Buffer_Locality_write = 0.878788
Bank_Level_Parallism = 1.597651
Bank_Level_Parallism_Col = 1.613105
Bank_Level_Parallism_Ready = 1.325688
write_to_read_ratio_blp_rw_average = 0.344774
GrpLevelPara = 1.000000 

BW Util details:
bwutil = 0.003506 
total_CMD = 123800 
util_bw = 434 
Wasted_Col = 224 
Wasted_Row = 36 
Idle = 123106 

BW Util Bottlenecks: 
RCDc_limit = 27 
RCDWRc_limit = 22 
WTRc_limit = 243 
RTWc_limit = 83 
CCDLc_limit = 0 
rwq = 0 
CCDLc_limit_alone = 0 
WTRc_limit_alone = 243 
RTWc_limit_alone = 83 

Commands details: 
total_CMD = 123800 
n_nop = 123573 
Read = 8 
Write = 105 
L2_Alloc = 104 
L2_WB = 0 
n_act = 6 
n_pre = 4 
n_ref = 0 
n_req = 61 
total_req = 217 

Dual Bus Interface Util: 
issued_total_row = 10 
issued_total_col = 217 
Row_Bus_Util =  0.000081 
CoL_Bus_Util = 0.001753 
Either_Row_CoL_Bus_Util = 0.001834 
Issued_on_Two_Bus_Simul_Util = 0.000000 
issued_two_Eff = 0.000000 
queue_avg = 0.004305 


dram_util_bins: 0 0 0 0 0 0 0 0 0 0
dram_eff_bins: 0 0 0 0 0 0 0 0 0 0
mrqq: max=6 avg=0.00430533
Memory Partition 6: 
Cache L2_bank_012:
MSHR contents

Cache L2_bank_013:
MSHR contents

In Dram Latency Queue (total = 0): 
DRAM[6]: 16 bks, busW=4 BL=8 CL=12, tRRD=6 tCCD=2, tRCD=12 tRAS=28 tRP=12 tRC=40
n_cmd=123800 n_nop=123578 n_act=6 n_pre=4 n_ref_event=0 n_req=56 n_rd=8 n_rd_L2_A=104 n_write=100 n_wr_bk=0 bw_util=0.003425
n_activity=858 dram_eff=0.4942
bk0: 56a 123329i bk1: 56a 123206i bk2: 0a 123796i bk3: 0a 123800i bk4: 0a 123800i bk5: 0a 123800i bk6: 0a 123800i bk7: 0a 123800i bk8: 0a 123800i bk9: 0a 123800i bk10: 0a 123800i bk11: 0a 123800i bk12: 0a 123800i bk13: 0a 123800i bk14: 0a 123800i bk15: 0a 123802i 

------------------------------------------------------------------------

Row_Buffer_Locality = 0.892857
Row_Buffer_Locality_read = 0.928571
Row_Buffer_Locality_write = 0.857143
Bank_Level_Parallism = 1.624093
Bank_Level_Parallism_Col = 1.674528
Bank_Level_Parallism_Ready = 1.319249
write_to_read_ratio_blp_rw_average = 0.356918
GrpLevelPara = 1.000000 

BW Util details:
bwutil = 0.003425 
total_CMD = 123800 
util_bw = 424 
Wasted_Col = 230 
Wasted_Row = 48 
Idle = 123098 

BW Util Bottlenecks: 
RCDc_limit = 30 
RCDWRc_limit = 22 
WTRc_limit = 242 
RTWc_limit = 100 
CCDLc_limit = 0 
rwq = 0 
CCDLc_limit_alone = 0 
WTRc_limit_alone = 242 
RTWc_limit_alone = 100 

Commands details: 
total_CMD = 123800 
n_nop = 123578 
Read = 8 
Write = 100 
L2_Alloc = 104 
L2_WB = 0 
n_act = 6 
n_pre = 4 
n_ref = 0 
n_req = 56 
total_req = 212 

Dual Bus Interface Util: 
issued_total_row = 10 
issued_total_col = 212 
Row_Bus_Util =  0.000081 
CoL_Bus_Util = 0.001712 
Either_Row_CoL_Bus_Util = 0.001793 
Issued_on_Two_Bus_Simul_Util = 0.000000 
issued_two_Eff = 0.000000 
queue_avg = 0.007367 


dram_util_bins: 0 0 0 0 0 0 0 0 0 0
dram_eff_bins: 0 0 0 0 0 0 0 0 0 0
mrqq: max=6 avg=0.00736672
Memory Partition 7: 
Cache L2_bank_014:
MSHR contents

Cache L2_bank_015:
MSHR contents

In Dram Latency Queue (total = 0): 
DRAM[7]: 16 bks, busW=4 BL=8 CL=12, tRRD=6 tCCD=2, tRCD=12 tRAS=28 tRP=12 tRC=40
n_cmd=123800 n_nop=123587 n_act=4 n_pre=2 n_ref_event=0 n_req=54 n_rd=4 n_rd_L2_A=104 n_write=99 n_wr_bk=0 bw_util=0.003344
n_activity=777 dram_eff=0.5328
bk0: 56a 123396i bk1: 52a 123272i bk2: 0a 123798i bk3: 0a 123800i bk4: 0a 123800i bk5: 0a 123800i bk6: 0a 123800i bk7: 0a 123800i bk8: 0a 123800i bk9: 0a 123800i bk10: 0a 123800i bk11: 0a 123800i bk12: 0a 123800i bk13: 0a 123800i bk14: 0a 123800i bk15: 0a 123801i 

------------------------------------------------------------------------

Row_Buffer_Locality = 0.925926
Row_Buffer_Locality_read = 0.962963
Row_Buffer_Locality_write = 0.888889
Bank_Level_Parallism = 1.584541
Bank_Level_Parallism_Col = 1.609428
Bank_Level_Parallism_Ready = 1.288462
write_to_read_ratio_blp_rw_average = 0.311448
GrpLevelPara = 1.000000 

BW Util details:
bwutil = 0.003344 
total_CMD = 123800 
util_bw = 414 
Wasted_Col = 196 
Wasted_Row = 24 
Idle = 123166 

BW Util Bottlenecks: 
RCDc_limit = 15 
RCDWRc_limit = 15 
WTRc_limit = 247 
RTWc_limit = 56 
CCDLc_limit = 0 
rwq = 0 
CCDLc_limit_alone = 0 
WTRc_limit_alone = 247 
RTWc_limit_alone = 56 

Commands details: 
total_CMD = 123800 
n_nop = 123587 
Read = 4 
Write = 99 
L2_Alloc = 104 
L2_WB = 0 
n_act = 4 
n_pre = 2 
n_ref = 0 
n_req = 54 
total_req = 207 

Dual Bus Interface Util: 
issued_total_row = 6 
issued_total_col = 207 
Row_Bus_Util =  0.000048 
CoL_Bus_Util = 0.001672 
Either_Row_CoL_Bus_Util = 0.001721 
Issued_on_Two_Bus_Simul_Util = 0.000000 
issued_two_Eff = 0.000000 
queue_avg = 0.004200 


dram_util_bins: 0 0 0 0 0 0 0 0 0 0
dram_eff_bins: 0 0 0 0 0 0 0 0 0 0
mrqq: max=6 avg=0.00420032

========= L2 cache stats =========
L2_cache_bank[0]: Access = 180, Miss = 15, Miss_rate = 0.083, Pending_hits = 20, Reservation_fails = 0
L2_cache_bank[1]: Access = 160, Miss = 14, Miss_rate = 0.087, Pending_hits = 15, Reservation_fails = 0
L2_cache_bank[2]: Access = 160, Miss = 14, Miss_rate = 0.087, Pending_hits = 19, Reservation_fails = 0
L2_cache_bank[3]: Access = 160, Miss = 14, Miss_rate = 0.087, Pending_hits = 0, Reservation_fails = 0
L2_cache_bank[4]: Access = 141, Miss = 14, Miss_rate = 0.099, Pending_hits = 6, Reservation_fails = 0
L2_cache_bank[5]: Access = 141, Miss = 14, Miss_rate = 0.099, Pending_hits = 2, Reservation_fails = 0
L2_cache_bank[6]: Access = 140, Miss = 13, Miss_rate = 0.093, Pending_hits = 2, Reservation_fails = 0
L2_cache_bank[7]: Access = 140, Miss = 13, Miss_rate = 0.093, Pending_hits = 5, Reservation_fails = 0
L2_cache_bank[8]: Access = 140, Miss = 13, Miss_rate = 0.093, Pending_hits = 2, Reservation_fails = 0
L2_cache_bank[9]: Access = 140, Miss = 13, Miss_rate = 0.093, Pending_hits = 2, Reservation_fails = 0
L2_cache_bank[10]: Access = 142, Miss = 14, Miss_rate = 0.099, Pending_hits = 7, Reservation_fails = 0
L2_cache_bank[11]: Access = 144, Miss = 14, Miss_rate = 0.097, Pending_hits = 0, Reservation_fails = 0
L2_cache_bank[12]: Access = 144, Miss = 14, Miss_rate = 0.097, Pending_hits = 0, Reservation_fails = 0
L2_cache_bank[13]: Access = 144, Miss = 14, Miss_rate = 0.097, Pending_hits = 2, Reservation_fails = 0
L2_cache_bank[14]: Access = 142, Miss = 14, Miss_rate = 0.099, Pending_hits = 1, Reservation_fails = 0
L2_cache_bank[15]: Access = 140, Miss = 13, Miss_rate = 0.093, Pending_hits = 0, Reservation_fails = 0
L2_total_cache_accesses = 2358
L2_total_cache_misses = 220
L2_total_cache_miss_rate = 0.0933
L2_total_cache_pending_hits = 83
L2_total_cache_reservation_fails = 0
L2_total_cache_breakdown:
	L2_cache_stats_breakdown[GLOBAL_ACC_R][HIT] = 1024
	L2_cache_stats_breakdown[GLOBAL_ACC_R][HIT_RESERVED] = 0
	L2_cache_stats_breakdown[GLOBAL_ACC_R][MISS] = 0
	L2_cache_stats_breakdown[GLOBAL_ACC_R][RESERVATION_FAIL] = 0
	L2_cache_stats_breakdown[GLOBAL_ACC_R][SECTOR_MISS] = 0
	L2_cache_stats_breakdown[GLOBAL_ACC_R][MSHR_HIT] = 0
	L2_cache_stats_breakdown[LOCAL_ACC_R][HIT] = 0
	L2_cache_stats_breakdown[LOCAL_ACC_R][HIT_RESERVED] = 0
	L2_cache_stats_breakdown[LOCAL_ACC_R][MISS] = 0
	L2_cache_stats_breakdown[LOCAL_ACC_R][RESERVATION_FAIL] = 0
	L2_cache_stats_breakdown[LOCAL_ACC_R][SECTOR_MISS] = 0
	L2_cache_stats_breakdown[LOCAL_ACC_R][MSHR_HIT] = 0
	L2_cache_stats_breakdown[CONST_ACC_R][HIT] = 19
	L2_cache_stats_breakdown[CONST_ACC_R][HIT_RESERVED] = 0
	L2_cache_stats_breakdown[CONST_ACC_R][MISS] = 1
	L2_cache_stats_breakdown[CONST_ACC_R][RESERVATION_FAIL] = 0
	L2_cache_stats_breakdown[CONST_ACC_R][SECTOR_MISS] = 0
	L2_cache_stats_breakdown[CONST_ACC_R][MSHR_HIT] = 0
	L2_cache_stats_breakdown[TEXTURE_ACC_R][HIT] = 0
	L2_cache_stats_breakdown[TEXTURE_ACC_R][HIT_RESERVED] = 0
	L2_cache_stats_breakdown[TEXTURE_ACC_R][MISS] = 0
	L2_cache_stats_breakdown[TEXTURE_ACC_R][RESERVATION_FAIL] = 0
	L2_cache_stats_breakdown[TEXTURE_ACC_R][SECTOR_MISS] = 0
	L2_cache_stats_breakdown[TEXTURE_ACC_R][MSHR_HIT] = 0
	L2_cache_stats_breakdown[GLOBAL_ACC_W][HIT] = 978
	L2_cache_stats_breakdown[GLOBAL_ACC_W][HIT_RESERVED] = 30
	L2_cache_stats_breakdown[GLOBAL_ACC_W][MISS] = 208
	L2_cache_stats_breakdown[GLOBAL_ACC_W][RESERVATION_FAIL] = 0
	L2_cache_stats_breakdown[GLOBAL_ACC_W][SECTOR_MISS] = 0
	L2_cache_stats_breakdown[GLOBAL_ACC_W][MSHR_HIT] = 0
	L2_cache_stats_breakdown[LOCAL_ACC_W][HIT] = 0
	L2_cache_stats_breakdown[LOCAL_ACC_W][HIT_RESERVED] = 0
	L2_cache_stats_breakdown[LOCAL_ACC_W][MISS] = 0
	L2_cache_stats_breakdown[LOCAL_ACC_W][RESERVATION_FAIL] = 0
	L2_cache_stats_breakdown[LOCAL_ACC_W][SECTOR_MISS] = 0
	L2_cache_stats_breakdown[LOCAL_ACC_W][MSHR_HIT] = 0
	L2_cache_stats_breakdown[L1_WRBK_ACC][HIT] = 0
	L2_cache_stats_breakdown[L1_WRBK_ACC][HIT_RESERVED] = 0
	L2_cache_stats_breakdown[L1_WRBK_ACC][MISS] = 0
	L2_cache_stats_breakdown[L1_WRBK_ACC][RESERVATION_FAIL] = 0
	L2_cache_stats_breakdown[L1_WRBK_ACC][SECTOR_MISS] = 0
	L2_cache_stats_breakdown[L1_WRBK_ACC][MSHR_HIT] = 0
	L2_cache_stats_breakdown[L2_WRBK_ACC][HIT] = 0
	L2_cache_stats_breakdown[L2_WRBK_ACC][HIT_RESERVED] = 0
	L2_cache_stats_breakdown[L2_WRBK_ACC][MISS] = 0
	L2_cache_stats_breakdown[L2_WRBK_ACC][RESERVATION_FAIL] = 0
	L2_cache_stats_breakdown[L2_WRBK_ACC][SECTOR_MISS] = 0
	L2_cache_stats_breakdown[L2_WRBK_ACC][MSHR_HIT] = 0
	L2_cache_stats_breakdown[INST_ACC_R][HIT] = 34
	L2_cache_stats_breakdown[INST_ACC_R][HIT_RESERVED] = 53
	L2_cache_stats_breakdown[INST_ACC_R][MISS] = 11
	L2_cache_stats_breakdown[INST_ACC_R][RESERVATION_FAIL] = 0
	L2_cache_stats_breakdown[INST_ACC_R][SECTOR_MISS] = 0
	L2_cache_stats_breakdown[INST_ACC_R][MSHR_HIT] = 53
	L2_cache_stats_breakdown[L1_WR_ALLOC_R][HIT] = 0
	L2_cache_stats_breakdown[L1_WR_ALLOC_R][HIT_RESERVED] = 0
	L2_cache_stats_breakdown[L1_WR_ALLOC_R][MISS] = 0
	L2_cache_stats_breakdown[L1_WR_ALLOC_R][RESERVATION_FAIL] = 0
	L2_cache_stats_breakdown[L1_WR_ALLOC_R][SECTOR_MISS] = 0
	L2_cache_stats_breakdown[L1_WR_ALLOC_R][MSHR_HIT] = 0
	L2_cache_stats_breakdown[L2_WR_ALLOC_R][HIT] = 0
	L2_cache_stats_breakdown[L2_WR_ALLOC_R][HIT_RESERVED] = 0
	L2_cache_stats_breakdown[L2_WR_ALLOC_R][MISS] = 0
	L2_cache_stats_breakdown[L2_WR_ALLOC_R][RESERVATION_FAIL] = 0
	L2_cache_stats_breakdown[L2_WR_ALLOC_R][SECTOR_MISS] = 0
	L2_cache_stats_breakdown[L2_WR_ALLOC_R][MSHR_HIT] = 30
	L2_cache_stats_breakdown[GLOBAL_ACC_R][TOTAL_ACCESS] = 1024
	L2_cache_stats_breakdown[CONST_ACC_R][TOTAL_ACCESS] = 20
	L2_cache_stats_breakdown[GLOBAL_ACC_W][TOTAL_ACCESS] = 1216
	L2_cache_stats_breakdown[INST_ACC_R][TOTAL_ACCESS] = 98
L2_total_cache_reservation_fail_breakdown:
L2_cache_data_port_util = 0.005
L2_cache_fill_port_util = 0.001

icnt_total_pkts_mem_to_simt=6886
icnt_total_pkts_simt_to_mem=5686
LD_mem_lat_dist  0 0 0 0 0 0 0 0 0 0 0 0 0 0 0 0 0 0 0 0 0 0 0 0 0 0 0
ST_mem_lat_dist  0 0 0 0 0 0 0 0 0 0 0 0 0 0 0 0 0 0 0 0 0 0 0 0 0 0 0
----------------------------Interconnect-DETAILS--------------------------------
Class 0:
Packet latency average = 43.980469
	minimum = 6.000000
	maximum = 290.000000
Network latency average = 33.971354
	minimum = 6.000000
	maximum = 195.000000
Slowest packet = 4094
Flit latency average = 58.171875
	minimum = 6.000000
	maximum = 191.000000
Slowest flit = 11358
Fragmentation average = 0.000000
	minimum = 0.000000
	maximum = 0.000000
Injected packet rate average = 0.000470
	minimum = 0.000000 (at node 36)
	maximum = 0.004318 (at node 11)
Accepted packet rate average = 0.000470
	minimum = 0.000000 (at node 36)
	maximum = 0.004318 (at node 11)
Injected flit rate average = 0.000941
	minimum = 0.000000 (at node 36)
	maximum = 0.004716 (at node 11)
Accepted flit rate average= 0.000941
	minimum = 0.000000 (at node 36)
	maximum = 0.019997 (at node 11)
Injected packet length average = 2.000000
Accepted packet length average = 2.000000
Total in-flight flits = 0 (0 measured)
====== Overall Traffic Statistics ======
====== Traffic class 0 ======
Packet latency average = 71.301482 (11 samples)
	minimum = 6.000000 (11 samples)
	maximum = 295.727273 (11 samples)
Network latency average = 56.082170 (11 samples)
	minimum = 6.000000 (11 samples)
	maximum = 186.363636 (11 samples)
Flit latency average = 59.243158 (11 samples)
	minimum = 6.000000 (11 samples)
	maximum = 183.818182 (11 samples)
Fragmentation average = 0.000000 (11 samples)
	minimum = 0.000000 (11 samples)
	maximum = 0.000000 (11 samples)
Injected packet rate average = 0.003735 (11 samples)
	minimum = 0.000000 (11 samples)
	maximum = 0.091802 (11 samples)
Accepted packet rate average = 0.003735 (11 samples)
	minimum = 0.000000 (11 samples)
	maximum = 0.091802 (11 samples)
Injected flit rate average = 0.011109 (11 samples)
	minimum = 0.000000 (11 samples)
	maximum = 0.257837 (11 samples)
Accepted flit rate average = 0.011109 (11 samples)
	minimum = 0.000000 (11 samples)
	maximum = 0.292312 (11 samples)
Injected packet size average = 2.973930 (11 samples)
Accepted packet size average = 2.973930 (11 samples)
Hops average = 1.000000 (11 samples)
----------------------------END-of-Interconnect-DETAILS-------------------------


gpgpu_simulation_time = 0 days, 0 hrs, 1 min, 44 sec (104 sec)
gpgpu_simulation_rate = 642003 (inst/sec)
gpgpu_simulation_rate = 765 (cycle/sec)
gpgpu_silicon_slowdown = 2100653x
Function    MBytes/sec  Min (sec)   Max         Average     
Copy        0.081       0.20328     0.20328     0.20328     
Mul         0.054       0.30333     0.30333     0.30333     
Add         0.081       0.30335     0.30335     0.30335     
Triad       0.121       0.20342     0.20342     0.20342     
Dot         0.000       51.45464    51.45464    51.45464    
GPGPU-Sim: *** exit detected ***
