GPGPU-Sim version 4.2.0 (build gpgpu-sim_git-commit-13c67115070dc2f0876254a790d0238073ca364a-modified_590.0) configured with AccelWattch.

----------------------------------------------------------------------------
INFO - If you only care about PTX execution, ignore this message. GPGPU-Sim supports PTX execution in modern CUDA.
If you want to run PTXPLUS (sm_1x SASS) with a modern card configuration - set the envronment variable
$PTXAS_CUDA_INSTALL_PATH to point a CUDA version compabible with your card configurations (i.e. 8+ for PASCAL, 9+ for VOLTA etc..)
For example: "export $PTXAS_CUDA_INSTALL_PATH=/usr/local/cuda-9.1"

The following text describes why:
If you are using PTXPLUS, only sm_1x is supported and it requires that the app and simulator binaries are compiled in CUDA 4.2 or less.
The simulator requires it since CUDA headers desribe struct sizes in the exec which change from gen to gen.
The apps require 4.2 because new versions of CUDA tools have dropped parsing support for generating sm_1x
When running using modern config (i.e. volta) and PTXPLUS with CUDA 4.2, the $PTXAS_CUDA_INSTALL_PATH env variable is required to get proper register usage
(and hence occupancy) using a version of CUDA that knows the register usage on the real card.

----------------------------------------------------------------------------
setup_environment succeeded
Accel-Sim [build accelsim-commit-e02c99dbadefc0b9dc95317100be2a446eec142c_modified_0.0]

        *** GPGPU-Sim Simulator Version 4.2.0  [build gpgpu-sim_git-commit-13c67115070dc2f0876254a790d0238073ca364a_modified_0.0] ***


GPGPU-Sim: Configuration options:

-save_embedded_ptx                      0 # saves ptx files embedded in binary as <n>.ptx
-keep                                   0 # keep intermediate files created by GPGPU-Sim when interfacing with external programs
-gpgpu_ptx_save_converted_ptxplus                    0 # Saved converted ptxplus to a file
-gpgpu_occupancy_sm_number                   60 # The SM number to pass to ptxas when getting register usage for computing GPU occupancy. This parameter is required in the config.
-ptx_opcode_latency_int         4,13,4,5,145 # Opcode latencies for integers <ADD,MAX,MUL,MAD,DIV,SHFL>Default 1,1,19,25,145,32
-ptx_opcode_latency_fp          4,13,4,5,39 # Opcode latencies for single precision floating points <ADD,MAX,MUL,MAD,DIV>Default 1,1,1,1,30
-ptx_opcode_latency_dp         8,19,8,8,330 # Opcode latencies for double precision floating points <ADD,MAX,MUL,MAD,DIV>Default 8,8,8,8,335
-ptx_opcode_latency_sfu                    8 # Opcode latencies for SFU instructionsDefault 8
-ptx_opcode_latency_tesnor                   64 # Opcode latencies for Tensor instructionsDefault 64
-ptx_opcode_initiation_int            1,2,2,2,8 # Opcode initiation intervals for integers <ADD,MAX,MUL,MAD,DIV,SHFL>Default 1,1,4,4,32,4
-ptx_opcode_initiation_fp            1,2,1,1,4 # Opcode initiation intervals for single precision floating points <ADD,MAX,MUL,MAD,DIV>Default 1,1,1,1,5
-ptx_opcode_initiation_dp          1,2,1,1,130 # Opcode initiation intervals for double precision floating points <ADD,MAX,MUL,MAD,DIV>Default 8,8,8,8,130
-ptx_opcode_initiation_sfu                    8 # Opcode initiation intervals for sfu instructionsDefault 8
-ptx_opcode_initiation_tensor                   64 # Opcode initiation intervals for tensor instructionsDefault 64
-cdp_latency         7200,8000,100,12000,1600 # CDP API latency <cudaStreamCreateWithFlags, cudaGetParameterBufferV2_init_perWarp, cudaGetParameterBufferV2_perKernel, cudaLaunchDeviceV2_init_perWarp, cudaLaunchDevicV2_perKernel>Default 7200,8000,100,12000,1600
-network_mode                           1 # Interconnection network mode
-inter_config_file   config_fermi_islip.icnt # Interconnection network config file
-icnt_in_buffer_limit                   64 # in_buffer_limit
-icnt_out_buffer_limit                   64 # out_buffer_limit
-icnt_subnets                           2 # subnets
-icnt_arbiter_algo                      1 # arbiter_algo
-icnt_verbose                           0 # inct_verbose
-icnt_grant_cycles                      1 # grant_cycles
-gpgpu_ptx_use_cuobjdump                    1 # Use cuobjdump to extract ptx and sass from binaries
-gpgpu_experimental_lib_support                    0 # Try to extract code from cuda libraries [Broken because of unknown cudaGetExportTable]
-checkpoint_option                      0 #  checkpointing flag (0 = no checkpoint)
-checkpoint_kernel                      1 #  checkpointing during execution of which kernel (1- 1st kernel)
-checkpoint_CTA                         0 #  checkpointing after # of CTA (< less than total CTA)
-resume_option                          0 #  resume flag (0 = no resume)
-resume_kernel                          0 #  Resume from which kernel (1= 1st kernel)
-resume_CTA                             0 #  resume from which CTA 
-checkpoint_CTA_t                       0 #  resume from which CTA 
-checkpoint_insn_Y                      0 #  resume from which CTA 
-gpgpu_ptx_convert_to_ptxplus                    0 # Convert SASS (native ISA) to ptxplus and run ptxplus
-gpgpu_ptx_force_max_capability                   60 # Force maximum compute capability
-gpgpu_ptx_inst_debug_to_file                    0 # Dump executed instructions' debug information to file
-gpgpu_ptx_inst_debug_file       inst_debug.txt # Executed instructions' debug output file
-gpgpu_ptx_inst_debug_thread_uid                    1 # Thread UID for executed instructions' debug output
-gpgpu_simd_model                       1 # 1 = post-dominator
-gpgpu_shader_core_pipeline              2048:32 # shader core pipeline config, i.e., {<nthread>:<warpsize>}
-gpgpu_tex_cache:l1  N:16:128:24,L:R:m:N:L,F:128:4,128:2 # per-shader L1 texture cache  (READ-ONLY) config  {<nsets>:<bsize>:<assoc>,<rep>:<wr>:<alloc>:<wr_alloc>,<mshr>:<N>:<merge>,<mq>:<rf>}
-gpgpu_const_cache:l1 N:128:64:2,L:R:f:N:L,A:2:64,4 # per-shader L1 constant memory cache  (READ-ONLY) config  {<nsets>:<bsize>:<assoc>,<rep>:<wr>:<alloc>:<wr_alloc>,<mshr>:<N>:<merge>,<mq>} 
-gpgpu_cache:il1     N:8:128:4,L:R:f:N:L,A:2:48,4 # shader L1 instruction cache config  {<nsets>:<bsize>:<assoc>,<rep>:<wr>:<alloc>:<wr_alloc>,<mshr>:<N>:<merge>,<mq>} 
-gpgpu_cache:dl1     N:64:128:6,L:L:m:N:H,A:128:8,8 # per-shader L1 data cache config  {<nsets>:<bsize>:<assoc>,<rep>:<wr>:<alloc>:<wr_alloc>,<mshr>:<N>:<merge>,<mq> | none}
-gpgpu_l1_cache_write_ratio                    0 # L1D write ratio
-gpgpu_l1_banks                         1 # The number of L1 cache banks
-gpgpu_l1_banks_byte_interleaving                   32 # l1 banks byte interleaving granularity
-gpgpu_l1_banks_hashing_function                    0 # l1 banks hashing function
-gpgpu_l1_latency                       1 # L1 Hit Latency
-gpgpu_smem_latency                     3 # smem Latency
-gpgpu_cache:dl1PrefL1                 none # per-shader L1 data cache config  {<nsets>:<bsize>:<assoc>,<rep>:<wr>:<alloc>:<wr_alloc>,<mshr>:<N>:<merge>,<mq> | none}
-gpgpu_cache:dl1PrefShared                 none # per-shader L1 data cache config  {<nsets>:<bsize>:<assoc>,<rep>:<wr>:<alloc>:<wr_alloc>,<mshr>:<N>:<merge>,<mq> | none}
-gpgpu_gmem_skip_L1D                    1 # global memory access skip L1D cache (implements -Xptxas -dlcm=cg, default=no skip)
-gpgpu_perfect_mem                      0 # enable perfect memory mode (no cache miss)
-n_regfile_gating_group                    4 # group of lanes that should be read/written together)
-gpgpu_clock_gated_reg_file                    0 # enable clock gated reg file for power calculations
-gpgpu_clock_gated_lanes                    0 # enable clock gated lanes for power calculations
-gpgpu_shader_registers                65536 # Number of registers per shader core. Limits number of concurrent CTAs. (default 8192)
-gpgpu_registers_per_block                 8192 # Maximum number of registers per CTA. (default 8192)
-gpgpu_ignore_resources_limitation                    0 # gpgpu_ignore_resources_limitation (default 0)
-gpgpu_shader_cta                      32 # Maximum number of concurrent CTAs in shader (default 32)
-gpgpu_num_cta_barriers                   16 # Maximum number of named barriers per CTA (default 16)
-gpgpu_n_clusters                      20 # number of processing clusters
-gpgpu_n_cores_per_cluster                    1 # number of simd cores per cluster
-gpgpu_n_cluster_ejection_buffer_size                    8 # number of packets in ejection buffer
-gpgpu_n_ldst_response_buffer_size                    2 # number of response packets in ld/st unit ejection buffer
-gpgpu_shmem_per_block                49152 # Size of shared memory per thread block or CTA (default 48kB)
-gpgpu_shmem_size                   98304 # Size of shared memory per shader core (default 16kB)
-gpgpu_shmem_option                     0 # Option list of shared memory sizes
-gpgpu_unified_l1d_size                    0 # Size of unified data cache(L1D + shared memory) in KB
-gpgpu_adaptive_cache_config                    0 # adaptive_cache_config
-gpgpu_shmem_sizeDefault                16384 # Size of shared memory per shader core (default 16kB)
-gpgpu_shmem_size_PrefL1                16384 # Size of shared memory per shader core (default 16kB)
-gpgpu_shmem_size_PrefShared                16384 # Size of shared memory per shader core (default 16kB)
-gpgpu_shmem_num_banks                   32 # Number of banks in the shared memory in each shader core (default 16)
-gpgpu_shmem_limited_broadcast                    0 # Limit shared memory to do one broadcast per cycle (default on)
-gpgpu_shmem_warp_parts                    1 # Number of portions a warp is divided into for shared memory bank conflict check 
-gpgpu_mem_unit_ports                    1 # The number of memory transactions allowed per core cycle
-gpgpu_shmem_warp_parts                    1 # Number of portions a warp is divided into for shared memory bank conflict check 
-gpgpu_warpdistro_shader                   -1 # Specify which shader core to collect the warp size distribution from
-gpgpu_warp_issue_shader                    0 # Specify which shader core to collect the warp issue distribution from
-gpgpu_local_mem_map                    1 # Mapping from local memory space address to simulated GPU physical address space (default = enabled)
-gpgpu_num_reg_banks                   32 # Number of register banks (default = 8)
-gpgpu_reg_bank_use_warp_id                    0 # Use warp ID in mapping registers to banks (default = off)
-gpgpu_sub_core_model                    0 # Sub Core Volta/Pascal model (default = off)
-gpgpu_enable_specialized_operand_collector                    1 # enable_specialized_operand_collector
-gpgpu_operand_collector_num_units_sp                   20 # number of collector units (default = 4)
-gpgpu_operand_collector_num_units_dp                    0 # number of collector units (default = 0)
-gpgpu_operand_collector_num_units_sfu                    4 # number of collector units (default = 4)
-gpgpu_operand_collector_num_units_int                    0 # number of collector units (default = 0)
-gpgpu_operand_collector_num_units_tensor_core                    4 # number of collector units (default = 4)
-gpgpu_operand_collector_num_units_mem                    8 # number of collector units (default = 2)
-gpgpu_operand_collector_num_units_gen                    0 # number of collector units (default = 0)
-gpgpu_operand_collector_num_in_ports_sp                    4 # number of collector unit in ports (default = 1)
-gpgpu_operand_collector_num_in_ports_dp                    0 # number of collector unit in ports (default = 0)
-gpgpu_operand_collector_num_in_ports_sfu                    1 # number of collector unit in ports (default = 1)
-gpgpu_operand_collector_num_in_ports_int                    0 # number of collector unit in ports (default = 0)
-gpgpu_operand_collector_num_in_ports_tensor_core                    1 # number of collector unit in ports (default = 1)
-gpgpu_operand_collector_num_in_ports_mem                    1 # number of collector unit in ports (default = 1)
-gpgpu_operand_collector_num_in_ports_gen                    0 # number of collector unit in ports (default = 0)
-gpgpu_operand_collector_num_out_ports_sp                    4 # number of collector unit in ports (default = 1)
-gpgpu_operand_collector_num_out_ports_dp                    0 # number of collector unit in ports (default = 0)
-gpgpu_operand_collector_num_out_ports_sfu                    1 # number of collector unit in ports (default = 1)
-gpgpu_operand_collector_num_out_ports_int                    0 # number of collector unit in ports (default = 0)
-gpgpu_operand_collector_num_out_ports_tensor_core                    1 # number of collector unit in ports (default = 1)
-gpgpu_operand_collector_num_out_ports_mem                    1 # number of collector unit in ports (default = 1)
-gpgpu_operand_collector_num_out_ports_gen                    0 # number of collector unit in ports (default = 0)
-gpgpu_coalesce_arch                   13 # Coalescing arch (GT200 = 13, Fermi = 20)
-gpgpu_num_sched_per_core                    2 # Number of warp schedulers per core
-gpgpu_max_insn_issue_per_warp                    2 # Max number of instructions that can be issued per warp in one cycle by scheduler (either 1 or 2)
-gpgpu_dual_issue_diff_exec_units                    1 # should dual issue use two different execution unit resources (Default = 1)
-gpgpu_simt_core_sim_order                    1 # Select the simulation order of cores in a cluster (0=Fix, 1=Round-Robin)
-gpgpu_pipeline_widths 4,0,0,1,1,4,0,0,1,1,6 # Pipeline widths ID_OC_SP,ID_OC_DP,ID_OC_INT,ID_OC_SFU,ID_OC_MEM,OC_EX_SP,OC_EX_DP,OC_EX_INT,OC_EX_SFU,OC_EX_MEM,EX_WB,ID_OC_TENSOR_CORE,OC_EX_TENSOR_CORE
-gpgpu_tensor_core_avail                    0 # Tensor Core Available (default=0)
-gpgpu_num_sp_units                     4 # Number of SP units (default=1)
-gpgpu_num_dp_units                     0 # Number of DP units (default=0)
-gpgpu_num_int_units                    0 # Number of INT units (default=0)
-gpgpu_num_sfu_units                    1 # Number of SF units (default=1)
-gpgpu_num_tensor_core_units                    0 # Number of tensor_core units (default=1)
-gpgpu_num_mem_units                    1 # Number if ldst units (default=1) WARNING: not hooked up to anything
-gpgpu_scheduler                      gto # Scheduler configuration: < lrr | gto | two_level_active > If two_level_active:<num_active_warps>:<inner_prioritization>:<outer_prioritization>For complete list of prioritization values see shader.h enum scheduler_prioritization_typeDefault: gto
-gpgpu_concurrent_kernel_sm                    0 # Support concurrent kernels on a SM (default = disabled)
-gpgpu_perfect_inst_const_cache                    0 # perfect inst and const cache mode, so all inst and const hits in the cache(default = disabled)
-gpgpu_inst_fetch_throughput                    1 # the number of fetched intruction per warp each cycle
-gpgpu_reg_file_port_throughput                    1 # the number ports of the register file
-specialized_unit_1         0,4,4,4,4,BRA # specialized unit config {<enabled>,<num_units>:<latency>:<initiation>,<ID_OC_SPEC>:<OC_EX_SPEC>,<NAME>}
-specialized_unit_2         0,4,4,4,4,BRA # specialized unit config {<enabled>,<num_units>:<latency>:<initiation>,<ID_OC_SPEC>:<OC_EX_SPEC>,<NAME>}
-specialized_unit_3         0,4,4,4,4,BRA # specialized unit config {<enabled>,<num_units>:<latency>:<initiation>,<ID_OC_SPEC>:<OC_EX_SPEC>,<NAME>}
-specialized_unit_4         0,4,4,4,4,BRA # specialized unit config {<enabled>,<num_units>:<latency>:<initiation>,<ID_OC_SPEC>:<OC_EX_SPEC>,<NAME>}
-specialized_unit_5         0,4,4,4,4,BRA # specialized unit config {<enabled>,<num_units>:<latency>:<initiation>,<ID_OC_SPEC>:<OC_EX_SPEC>,<NAME>}
-specialized_unit_6         0,4,4,4,4,BRA # specialized unit config {<enabled>,<num_units>:<latency>:<initiation>,<ID_OC_SPEC>:<OC_EX_SPEC>,<NAME>}
-specialized_unit_7         0,4,4,4,4,BRA # specialized unit config {<enabled>,<num_units>:<latency>:<initiation>,<ID_OC_SPEC>:<OC_EX_SPEC>,<NAME>}
-specialized_unit_8         0,4,4,4,4,BRA # specialized unit config {<enabled>,<num_units>:<latency>:<initiation>,<ID_OC_SPEC>:<OC_EX_SPEC>,<NAME>}
-gpgpu_perf_sim_memcpy                    1 # Fill the L2 cache on memcpy
-gpgpu_simple_dram_model                    0 # simple_dram_model with fixed latency and BW
-gpgpu_dram_scheduler                    1 # 0 = fifo, 1 = FR-FCFS (defaul)
-gpgpu_dram_partition_queues              8:8:8:8 # i2$:$2d:d2$:$2i
-l2_ideal                               0 # Use a ideal L2 cache that always hit
-gpgpu_cache:dl2     N:64:128:16,L:B:m:W:L,A:1024:1024,4:0,32 # unified banked L2 data cache config  {<nsets>:<bsize>:<assoc>,<rep>:<wr>:<alloc>:<wr_alloc>,<mshr>:<N>:<merge>,<mq>}
-gpgpu_cache:dl2_texture_only                    0 # L2 cache used for texture only
-gpgpu_n_mem                            8 # number of memory modules (e.g. memory controllers) in gpu
-gpgpu_n_sub_partition_per_mchannel                    2 # number of memory subpartition in each memory module
-gpgpu_n_mem_per_ctrlr                    1 # number of memory chips per memory controller
-gpgpu_memlatency_stat                   14 # track and display latency statistics 0x2 enables MC, 0x4 enables queue logs
-gpgpu_frfcfs_dram_sched_queue_size                   64 # 0 = unlimited (default); # entries per chip
-gpgpu_dram_return_queue_size                  116 # 0 = unlimited (default); # entries per chip
-gpgpu_dram_buswidth                    4 # default = 4 bytes (8 bytes per cycle at DDR)
-gpgpu_dram_burst_length                    8 # Burst length of each DRAM request (default = 4 data bus cycle)
-dram_data_command_freq_ratio                    4 # Frequency ratio between DRAM data bus and command bus (default = 2 times, i.e. DDR)
-gpgpu_dram_timing_opt nbk=16:CCD=2:RRD=6:RCD=12:RAS=28:RP=12:RC=40: CL=12:WL=4:CDLR=5:WR=12:nbkgrp=1:CCDL=0:RTPL=0 # DRAM timing parameters = {nbk:tCCD:tRRD:tRCD:tRAS:tRP:tRC:CL:WL:tCDLR:tWR:nbkgrp:tCCDL:tRTPL}
-gpgpu_l2_rop_latency                  120 # ROP queue latency (default 85)
-dram_latency                         100 # DRAM latency (default 30)
-dram_dual_bus_interface                    0 # dual_bus_interface (default = 0) 
-dram_bnk_indexing_policy                    0 # dram_bnk_indexing_policy (0 = normal indexing, 1 = Xoring with the higher bits) (Default = 0)
-dram_bnkgrp_indexing_policy                    0 # dram_bnkgrp_indexing_policy (0 = take higher bits, 1 = take lower bits) (Default = 0)
-dram_seperate_write_queue_enable                    0 # Seperate_Write_Queue_Enable
-dram_write_queue_size             32:28:16 # Write_Queue_Size
-dram_elimnate_rw_turnaround                    0 # elimnate_rw_turnaround i.e set tWTR and tRTW = 0
-icnt_flit_size                        32 # icnt_flit_size
-gpgpu_mem_addr_mapping dramid@8;00000000.00000000.00000000.00000000.0000RRRR.RRRRRRRR.RBBBCCCC.BCCSSSSS # mapping memory address to dram model {dramid@<start bit>;<memory address map>}
-gpgpu_mem_addr_test                    0 # run sweep test to check address mapping for aliased address
-gpgpu_mem_address_mask                    1 # 0 = old addressing mask, 1 = new addressing mask, 2 = new add. mask + flipped bank sel and chip sel bits
-gpgpu_memory_partition_indexing                    0 # 0 = no indexing, 1 = bitwise xoring, 2 = IPoly, 3 = custom indexing
-accelwattch_xml_file accelwattch_sass_sim.xml # AccelWattch XML file
-power_simulation_enabled                    0 # Turn on power simulator (1=On, 0=Off)
-power_per_cycle_dump                    0 # Dump detailed power output each cycle
-hw_perf_file_name            hw_perf.csv # Hardware Performance Statistics file
-hw_perf_bench_name                       # Kernel Name in Hardware Performance Statistics file
-power_simulation_mode                    0 # Switch performance counter input for power simulation (0=Sim, 1=HW, 2=HW-Sim Hybrid)
-dvfs_enabled                           0 # Turn on DVFS for power model
-aggregate_power_stats                    0 # Accumulate power across all kernels
-accelwattch_hybrid_perfsim_L1_RH                    0 # Get L1 Read Hits for Accelwattch-Hybrid from Accel-Sim
-accelwattch_hybrid_perfsim_L1_RM                    0 # Get L1 Read Misses for Accelwattch-Hybrid from Accel-Sim
-accelwattch_hybrid_perfsim_L1_WH                    0 # Get L1 Write Hits for Accelwattch-Hybrid from Accel-Sim
-accelwattch_hybrid_perfsim_L1_WM                    0 # Get L1 Write Misses for Accelwattch-Hybrid from Accel-Sim
-accelwattch_hybrid_perfsim_L2_RH                    0 # Get L2 Read Hits for Accelwattch-Hybrid from Accel-Sim
-accelwattch_hybrid_perfsim_L2_RM                    0 # Get L2 Read Misses for Accelwattch-Hybrid from Accel-Sim
-accelwattch_hybrid_perfsim_L2_WH                    0 # Get L2 Write Hits for Accelwattch-Hybrid from Accel-Sim
-accelwattch_hybrid_perfsim_L2_WM                    0 # Get L2 Write Misses for Accelwattch-Hybrid from Accel-Sim
-accelwattch_hybrid_perfsim_CC_ACC                    0 # Get Constant Cache Acesses for Accelwattch-Hybrid from Accel-Sim
-accelwattch_hybrid_perfsim_SHARED_ACC                    0 # Get Shared Memory Acesses for Accelwattch-Hybrid from Accel-Sim
-accelwattch_hybrid_perfsim_DRAM_RD                    0 # Get DRAM Reads for Accelwattch-Hybrid from Accel-Sim
-accelwattch_hybrid_perfsim_DRAM_WR                    0 # Get DRAM Writes for Accelwattch-Hybrid from Accel-Sim
-accelwattch_hybrid_perfsim_NOC                    0 # Get Interconnect Acesses for Accelwattch-Hybrid from Accel-Sim
-accelwattch_hybrid_perfsim_PIPE_DUTY                    0 # Get Pipeline Duty Cycle Acesses for Accelwattch-Hybrid from Accel-Sim
-accelwattch_hybrid_perfsim_NUM_SM_IDLE                    0 # Get Number of Idle SMs for Accelwattch-Hybrid from Accel-Sim
-accelwattch_hybrid_perfsim_CYCLES                    0 # Get Executed Cycles for Accelwattch-Hybrid from Accel-Sim
-accelwattch_hybrid_perfsim_VOLTAGE                    0 # Get Chip Voltage for Accelwattch-Hybrid from Accel-Sim
-power_trace_enabled                    0 # produce a file for the power trace (1=On, 0=Off)
-power_trace_zlevel                     6 # Compression level of the power trace output log (0=no comp, 9=highest)
-steady_power_levels_enabled                    0 # produce a file for the steady power levels (1=On, 0=Off)
-steady_state_definition                  8:4 # allowed deviation:number of samples
-gpgpu_max_cycle                        0 # terminates gpu simulation early (0 = no limit)
-gpgpu_max_insn                         0 # terminates gpu simulation early (0 = no limit)
-gpgpu_max_cta                          0 # terminates gpu simulation early (0 = no limit)
-gpgpu_max_completed_cta                    0 # terminates gpu simulation early (0 = no limit)
-gpgpu_runtime_stat                   500 # display runtime statistics such as dram utilization {<freq>:<flag>}
-liveness_message_freq                    1 # Minimum number of seconds between simulation liveness messages (0 = always print)
-gpgpu_compute_capability_major                    7 # Major compute capability version number
-gpgpu_compute_capability_minor                    0 # Minor compute capability version number
-gpgpu_flush_l1_cache                    0 # Flush L1 cache at the end of each kernel call
-gpgpu_flush_l2_cache                    0 # Flush L2 cache at the end of each kernel call
-gpgpu_deadlock_detect                    1 # Stop the simulation at deadlock (1=on (default), 0=off)
-gpgpu_ptx_instruction_classification                    0 # if enabled will classify ptx instruction types per kernel (Max 255 kernels now)
-gpgpu_ptx_sim_mode                     0 # Select between Performance (default) or Functional simulation (1)
-gpgpu_clock_domains 1607.0:1607.0:1607.0:2500.0 # Clock Domain Frequencies in MhZ {<Core Clock>:<ICNT Clock>:<L2 Clock>:<DRAM Clock>}
-gpgpu_max_concurrent_kernel                   32 # maximum kernels that can run concurrently on GPU, set this value according to max resident grids for your compute capability
-gpgpu_cflog_interval                    0 # Interval between each snapshot in control flow logger
-visualizer_enabled                     0 # Turn on visualizer output (1=On, 0=Off)
-visualizer_outputfile                 NULL # Specifies the output log file for visualizer
-visualizer_zlevel                      6 # Compression level of the visualizer output log (0=no comp, 9=highest)
-gpgpu_stack_size_limit                 1024 # GPU thread stack size
-gpgpu_heap_size_limit              8388608 # GPU malloc heap size 
-gpgpu_runtime_sync_depth_limit                    2 # GPU device runtime synchronize depth
-gpgpu_runtime_pending_launch_count_limit                 2048 # GPU device runtime pending launch count
-trace_enabled                          0 # Turn on traces
-trace_components                    none # comma seperated list of traces to enable. Complete list found in trace_streams.tup. Default none
-trace_sampling_core                    0 # The core which is printed using CORE_DPRINTF. Default 0
-trace_sampling_memory_partition                   -1 # The memory partition which is printed using MEMPART_DPRINTF. Default -1 (i.e. all)
-enable_ptx_file_line_stats                    1 # Turn on PTX source line statistic profiling. (1 = On)
-ptx_line_stats_filename gpgpu_inst_stats.txt # Output file for PTX source line statistics.
-gpgpu_kernel_launch_latency                    0 # Kernel launch latency in cycles. Default: 0
-gpgpu_cdp_enabled                      0 # Turn on CDP
-gpgpu_TB_launch_latency                    0 # thread block launch latency in cycles. Default: 0
-trace               /benchrun/accelsim-sass/sm6_gtx1080/babelstream/input-arraysize-1024-numtimes-2/results/traces/kernelslist.g # traces kernel filetraces kernel file directory
-trace_opcode_latency_initiation_int                  4,1 # Opcode latencies and initiation for integers in trace driven mode <latency,initiation>
-trace_opcode_latency_initiation_sp                  4,1 # Opcode latencies and initiation for sp in trace driven mode <latency,initiation>
-trace_opcode_latency_initiation_dp                  4,1 # Opcode latencies and initiation for dp in trace driven mode <latency,initiation>
-trace_opcode_latency_initiation_sfu                  4,1 # Opcode latencies and initiation for sfu in trace driven mode <latency,initiation>
-trace_opcode_latency_initiation_tensor                  4,1 # Opcode latencies and initiation for tensor in trace driven mode <latency,initiation>
-trace_opcode_latency_initiation_spec_op_1                  4,4 # specialized unit config <latency,initiation>
-trace_opcode_latency_initiation_spec_op_2                  4,4 # specialized unit config <latency,initiation>
-trace_opcode_latency_initiation_spec_op_3                  4,4 # specialized unit config <latency,initiation>
-trace_opcode_latency_initiation_spec_op_4                  4,4 # specialized unit config <latency,initiation>
-trace_opcode_latency_initiation_spec_op_5                  4,4 # specialized unit config <latency,initiation>
-trace_opcode_latency_initiation_spec_op_6                  4,4 # specialized unit config <latency,initiation>
-trace_opcode_latency_initiation_spec_op_7                  4,4 # specialized unit config <latency,initiation>
-trace_opcode_latency_initiation_spec_op_8                  4,4 # specialized unit config <latency,initiation>
DRAM Timing Options:
nbk                                    16 # number of banks
CCD                                     2 # column to column delay
RRD                                     6 # minimal delay between activation of rows in different banks
RCD                                    12 # row to column delay
RAS                                    28 # time needed to activate row
RP                                     12 # time needed to precharge (deactivate) row
RC                                     40 # row cycle time
CDLR                                    5 # switching from write to read (changes tWTR)
WR                                     12 # last data-in to row precharge
CL                                     12 # CAS latency
WL                                      4 # Write latency
nbkgrp                                  1 # number of bank groups
CCDL                                    0 # column to column delay between accesses to different bank groups
RTPL                                    0 # read to precharge delay between accesses to different bank groups
Total number of memory sub partition = 16
addr_dec_mask[CHIP]  = 0000000000000700 	high:11 low:8
addr_dec_mask[BK]    = 0000000000038080 	high:18 low:7
addr_dec_mask[ROW]   = 000000007ffc0000 	high:31 low:18
addr_dec_mask[COL]   = 000000000000787f 	high:15 low:0
addr_dec_mask[BURST] = 000000000000001f 	high:5 low:0
sub_partition_id_mask = 0000000000000080
GPGPU-Sim uArch: clock freqs: 1607000000.000000:1607000000.000000:1607000000.000000:2500000000.000000
GPGPU-Sim uArch: clock periods: 0.00000000062227753578:0.00000000062227753578:0.00000000062227753578:0.00000000040000000000
*** Initializing Memory Statistics ***
GPGPU-Sim uArch: interconnect node map (shaderID+MemID to icntID)
GPGPU-Sim uArch: Memory nodes ID start from index: 20
GPGPU-Sim uArch:    0   1   2   3   4   5   6
GPGPU-Sim uArch:    7   8   9  10  11  12  13
GPGPU-Sim uArch:   14  15  16  17  18  19  20
GPGPU-Sim uArch:   21  22  23  24  25  26  27
GPGPU-Sim uArch:   28  29  30  31  32  33  34
GPGPU-Sim uArch:   35  36  37  38  39  40  41
GPGPU-Sim uArch:   42  43  44  45  46  47  48
GPGPU-Sim uArch:   49
GPGPU-Sim uArch: interconnect node reverse map (icntID to shaderID+MemID)
GPGPU-Sim uArch: Memory nodes start from ID: 20
GPGPU-Sim uArch:    0   1   2   3   4   5   6
GPGPU-Sim uArch:    7   8   9  10  11  12  13
GPGPU-Sim uArch:   14  15  16  17  18  19  20
GPGPU-Sim uArch:   21  22  23  24  25  26  27
GPGPU-Sim uArch:   28  29  30  31  32  33  34
GPGPU-Sim uArch:   35  36  37  38  39  40  41
GPGPU-Sim uArch:   42  43  44  45  46  47  48
GPGPU-Sim uArch:   49
GPGPU-Sim uArch: performance model initialization complete.
Processing kernel /benchrun/accelsim-sass/sm6_gtx1080/babelstream/input-arraysize-1024-numtimes-2/results/traces/kernel-1.traceg
-kernel name = _Z11init_kernelIdEvPT_S1_S1_S0_S0_S0_
-kernel id = 1
-grid dim = (1,1,1)
-block dim = (1024,1,1)
-shmem = 0
-nregs = 14
-binary version = 61
-cuda stream id = 0
-shmem base_addr = 0x00007f5ee7000000
-local mem base_addr = 0x00007f5ee5000000
-nvbit version = 1.5.5
-accelsim tracer version = 3
Header info loaded for kernel command : /benchrun/accelsim-sass/sm6_gtx1080/babelstream/input-arraysize-1024-numtimes-2/results/traces/kernel-1.traceg
launching kernel name: _Z11init_kernelIdEvPT_S1_S1_S0_S0_S0_ uid: 1
GPGPU-Sim uArch: Shader 0 bind to kernel 1 '_Z11init_kernelIdEvPT_S1_S1_S0_S0_S0_'
GPGPU-Sim uArch: CTA/core = 2, limited by: threads
thread block = 0,0,0
Destroy streams for kernel 1: size 0
kernel_name = _Z11init_kernelIdEvPT_S1_S1_S0_S0_S0_ 
kernel_launch_uid = 1 
gpu_sim_cycle = 2235
gpu_sim_insn = 24576
gpu_ipc =      10.9960
gpu_tot_sim_cycle = 2235
gpu_tot_sim_insn = 24576
gpu_tot_ipc =      10.9960
gpu_tot_issued_cta = 1
gpu_occupancy = 38.8267% 
gpu_tot_occupancy = 38.8267% 
max_total_param_size = 0
gpu_stall_dramfull = 0
gpu_stall_icnt2sh    = 0
partiton_level_parallism =       0.0868
partiton_level_parallism_total  =       0.0868
partiton_level_parallism_util =       1.0000
partiton_level_parallism_util_total  =       1.0000
L2_BW  =       4.4636 GB/Sec
L2_BW_total  =       4.4636 GB/Sec
gpu_total_sim_rate=24576

========= Core cache stats =========
L1I_cache:
	L1I_total_cache_accesses = 384
	L1I_total_cache_misses = 64
	L1I_total_cache_miss_rate = 0.1667
	L1I_total_cache_pending_hits = 0
	L1I_total_cache_reservation_fails = 0
L1D_cache:
	L1D_cache_core[0]: Access = 0, Miss = 0, Miss_rate = -nan, Pending_hits = 0, Reservation_fails = 0
	L1D_cache_core[1]: Access = 0, Miss = 0, Miss_rate = -nan, Pending_hits = 0, Reservation_fails = 0
	L1D_cache_core[2]: Access = 0, Miss = 0, Miss_rate = -nan, Pending_hits = 0, Reservation_fails = 0
	L1D_cache_core[3]: Access = 0, Miss = 0, Miss_rate = -nan, Pending_hits = 0, Reservation_fails = 0
	L1D_cache_core[4]: Access = 0, Miss = 0, Miss_rate = -nan, Pending_hits = 0, Reservation_fails = 0
	L1D_cache_core[5]: Access = 0, Miss = 0, Miss_rate = -nan, Pending_hits = 0, Reservation_fails = 0
	L1D_cache_core[6]: Access = 0, Miss = 0, Miss_rate = -nan, Pending_hits = 0, Reservation_fails = 0
	L1D_cache_core[7]: Access = 0, Miss = 0, Miss_rate = -nan, Pending_hits = 0, Reservation_fails = 0
	L1D_cache_core[8]: Access = 0, Miss = 0, Miss_rate = -nan, Pending_hits = 0, Reservation_fails = 0
	L1D_cache_core[9]: Access = 0, Miss = 0, Miss_rate = -nan, Pending_hits = 0, Reservation_fails = 0
	L1D_cache_core[10]: Access = 0, Miss = 0, Miss_rate = -nan, Pending_hits = 0, Reservation_fails = 0
	L1D_cache_core[11]: Access = 0, Miss = 0, Miss_rate = -nan, Pending_hits = 0, Reservation_fails = 0
	L1D_cache_core[12]: Access = 0, Miss = 0, Miss_rate = -nan, Pending_hits = 0, Reservation_fails = 0
	L1D_cache_core[13]: Access = 0, Miss = 0, Miss_rate = -nan, Pending_hits = 0, Reservation_fails = 0
	L1D_cache_core[14]: Access = 0, Miss = 0, Miss_rate = -nan, Pending_hits = 0, Reservation_fails = 0
	L1D_cache_core[15]: Access = 0, Miss = 0, Miss_rate = -nan, Pending_hits = 0, Reservation_fails = 0
	L1D_cache_core[16]: Access = 0, Miss = 0, Miss_rate = -nan, Pending_hits = 0, Reservation_fails = 0
	L1D_cache_core[17]: Access = 0, Miss = 0, Miss_rate = -nan, Pending_hits = 0, Reservation_fails = 0
	L1D_cache_core[18]: Access = 0, Miss = 0, Miss_rate = -nan, Pending_hits = 0, Reservation_fails = 0
	L1D_cache_core[19]: Access = 0, Miss = 0, Miss_rate = -nan, Pending_hits = 0, Reservation_fails = 0
	L1D_total_cache_accesses = 0
	L1D_total_cache_misses = 0
	L1D_total_cache_pending_hits = 0
	L1D_total_cache_reservation_fails = 0
	L1D_cache_data_port_util = 0.000
	L1D_cache_fill_port_util = 0.000
L1C_cache:
	L1C_total_cache_accesses = 0
	L1C_total_cache_misses = 0
	L1C_total_cache_pending_hits = 0
	L1C_total_cache_reservation_fails = 0
L1T_cache:
	L1T_total_cache_accesses = 0
	L1T_total_cache_misses = 0
	L1T_total_cache_pending_hits = 0
	L1T_total_cache_reservation_fails = 0

Total_core_cache_stats:
	Total_core_cache_stats_breakdown[GLOBAL_ACC_R][HIT] = 0
	Total_core_cache_stats_breakdown[GLOBAL_ACC_R][HIT_RESERVED] = 0
	Total_core_cache_stats_breakdown[GLOBAL_ACC_R][MISS] = 0
	Total_core_cache_stats_breakdown[GLOBAL_ACC_R][RESERVATION_FAIL] = 0
	Total_core_cache_stats_breakdown[GLOBAL_ACC_R][SECTOR_MISS] = 0
	Total_core_cache_stats_breakdown[GLOBAL_ACC_R][MSHR_HIT] = 0
	Total_core_cache_stats_breakdown[LOCAL_ACC_R][HIT] = 0
	Total_core_cache_stats_breakdown[LOCAL_ACC_R][HIT_RESERVED] = 0
	Total_core_cache_stats_breakdown[LOCAL_ACC_R][MISS] = 0
	Total_core_cache_stats_breakdown[LOCAL_ACC_R][RESERVATION_FAIL] = 0
	Total_core_cache_stats_breakdown[LOCAL_ACC_R][SECTOR_MISS] = 0
	Total_core_cache_stats_breakdown[LOCAL_ACC_R][MSHR_HIT] = 0
	Total_core_cache_stats_breakdown[CONST_ACC_R][HIT] = 0
	Total_core_cache_stats_breakdown[CONST_ACC_R][HIT_RESERVED] = 0
	Total_core_cache_stats_breakdown[CONST_ACC_R][MISS] = 0
	Total_core_cache_stats_breakdown[CONST_ACC_R][RESERVATION_FAIL] = 0
	Total_core_cache_stats_breakdown[CONST_ACC_R][SECTOR_MISS] = 0
	Total_core_cache_stats_breakdown[CONST_ACC_R][MSHR_HIT] = 0
	Total_core_cache_stats_breakdown[TEXTURE_ACC_R][HIT] = 0
	Total_core_cache_stats_breakdown[TEXTURE_ACC_R][HIT_RESERVED] = 0
	Total_core_cache_stats_breakdown[TEXTURE_ACC_R][MISS] = 0
	Total_core_cache_stats_breakdown[TEXTURE_ACC_R][RESERVATION_FAIL] = 0
	Total_core_cache_stats_breakdown[TEXTURE_ACC_R][SECTOR_MISS] = 0
	Total_core_cache_stats_breakdown[TEXTURE_ACC_R][MSHR_HIT] = 0
	Total_core_cache_stats_breakdown[GLOBAL_ACC_W][HIT] = 0
	Total_core_cache_stats_breakdown[GLOBAL_ACC_W][HIT_RESERVED] = 0
	Total_core_cache_stats_breakdown[GLOBAL_ACC_W][MISS] = 0
	Total_core_cache_stats_breakdown[GLOBAL_ACC_W][RESERVATION_FAIL] = 0
	Total_core_cache_stats_breakdown[GLOBAL_ACC_W][SECTOR_MISS] = 0
	Total_core_cache_stats_breakdown[GLOBAL_ACC_W][MSHR_HIT] = 0
	Total_core_cache_stats_breakdown[LOCAL_ACC_W][HIT] = 0
	Total_core_cache_stats_breakdown[LOCAL_ACC_W][HIT_RESERVED] = 0
	Total_core_cache_stats_breakdown[LOCAL_ACC_W][MISS] = 0
	Total_core_cache_stats_breakdown[LOCAL_ACC_W][RESERVATION_FAIL] = 0
	Total_core_cache_stats_breakdown[LOCAL_ACC_W][SECTOR_MISS] = 0
	Total_core_cache_stats_breakdown[LOCAL_ACC_W][MSHR_HIT] = 0
	Total_core_cache_stats_breakdown[L1_WRBK_ACC][HIT] = 0
	Total_core_cache_stats_breakdown[L1_WRBK_ACC][HIT_RESERVED] = 0
	Total_core_cache_stats_breakdown[L1_WRBK_ACC][MISS] = 0
	Total_core_cache_stats_breakdown[L1_WRBK_ACC][RESERVATION_FAIL] = 0
	Total_core_cache_stats_breakdown[L1_WRBK_ACC][SECTOR_MISS] = 0
	Total_core_cache_stats_breakdown[L1_WRBK_ACC][MSHR_HIT] = 0
	Total_core_cache_stats_breakdown[L2_WRBK_ACC][HIT] = 0
	Total_core_cache_stats_breakdown[L2_WRBK_ACC][HIT_RESERVED] = 0
	Total_core_cache_stats_breakdown[L2_WRBK_ACC][MISS] = 0
	Total_core_cache_stats_breakdown[L2_WRBK_ACC][RESERVATION_FAIL] = 0
	Total_core_cache_stats_breakdown[L2_WRBK_ACC][SECTOR_MISS] = 0
	Total_core_cache_stats_breakdown[L2_WRBK_ACC][MSHR_HIT] = 0
	Total_core_cache_stats_breakdown[INST_ACC_R][HIT] = 320
	Total_core_cache_stats_breakdown[INST_ACC_R][HIT_RESERVED] = 0
	Total_core_cache_stats_breakdown[INST_ACC_R][MISS] = 64
	Total_core_cache_stats_breakdown[INST_ACC_R][RESERVATION_FAIL] = 0
	Total_core_cache_stats_breakdown[INST_ACC_R][SECTOR_MISS] = 0
	Total_core_cache_stats_breakdown[INST_ACC_R][MSHR_HIT] = 62
	Total_core_cache_stats_breakdown[L1_WR_ALLOC_R][HIT] = 0
	Total_core_cache_stats_breakdown[L1_WR_ALLOC_R][HIT_RESERVED] = 0
	Total_core_cache_stats_breakdown[L1_WR_ALLOC_R][MISS] = 0
	Total_core_cache_stats_breakdown[L1_WR_ALLOC_R][RESERVATION_FAIL] = 0
	Total_core_cache_stats_breakdown[L1_WR_ALLOC_R][SECTOR_MISS] = 0
	Total_core_cache_stats_breakdown[L1_WR_ALLOC_R][MSHR_HIT] = 0
	Total_core_cache_stats_breakdown[L2_WR_ALLOC_R][HIT] = 0
	Total_core_cache_stats_breakdown[L2_WR_ALLOC_R][HIT_RESERVED] = 0
	Total_core_cache_stats_breakdown[L2_WR_ALLOC_R][MISS] = 0
	Total_core_cache_stats_breakdown[L2_WR_ALLOC_R][RESERVATION_FAIL] = 0
	Total_core_cache_stats_breakdown[L2_WR_ALLOC_R][SECTOR_MISS] = 0
	Total_core_cache_stats_breakdown[L2_WR_ALLOC_R][MSHR_HIT] = 0
	Total_core_cache_stats_breakdown[INST_ACC_R][TOTAL_ACCESS] = 384

Total_core_cache_fail_stats:
ctas_completed 1, Shader 0 warp_id issue ditsribution:
warp_id:
0, 1, 2, 3, 4, 5, 6, 7, 8, 9, 10, 11, 12, 13, 14, 15, 16, 17, 18, 19, 20, 21, 22, 23, 24, 25, 26, 27, 28, 29, 30, 31, 
distro:
26, 27, 27, 27, 27, 27, 27, 27, 27, 27, 27, 27, 27, 26, 26, 26, 26, 26, 26, 26, 26, 26, 26, 26, 26, 26, 26, 26, 26, 26, 26, 26, 
gpgpu_n_tot_thrd_icount = 24576
gpgpu_n_tot_w_icount = 768
gpgpu_n_stall_shd_mem = 1041
gpgpu_n_mem_read_local = 0
gpgpu_n_mem_write_local = 0
gpgpu_n_mem_read_global = 0
gpgpu_n_mem_write_global = 192
gpgpu_n_mem_texture = 0
gpgpu_n_mem_const = 0
gpgpu_n_load_insn  = 0
gpgpu_n_store_insn = 3072
gpgpu_n_shmem_insn = 0
gpgpu_n_sstarr_insn = 0
gpgpu_n_tex_insn = 0
gpgpu_n_const_mem_insn = 0
gpgpu_n_param_mem_insn = 0
gpgpu_n_shmem_bkconflict = 0
gpgpu_n_cache_bkconflict = 0
gpgpu_n_intrawarp_mshr_merge = 0
gpgpu_n_cmem_portconflict = 0
gpgpu_stall_shd_mem[c_mem][resource_stall] = 0
gpgpu_stall_shd_mem[s_mem][bk_conf] = 0
gpgpu_stall_shd_mem[gl_mem][resource_stall] = 0
gpgpu_stall_shd_mem[gl_mem][coal_stall] = 96
gpgpu_stall_shd_mem[gl_mem][data_port_stall] = 0
gpu_reg_bank_conflict_stalls = 0
Warp Occupancy Distribution:
Stall:1341	W0_Idle:2416	W0_Scoreboard:19	W1:0	W2:0	W3:0	W4:0	W5:0	W6:0	W7:0	W8:0	W9:0	W10:0	W11:0	W12:0	W13:0	W14:0	W15:0	W16:0	W17:0	W18:0	W19:0	W20:0	W21:0	W22:0	W23:0	W24:0	W25:0	W26:0	W27:0	W28:0	W29:0	W30:0	W31:0	W32:768
single_issue_nums: WS0:308	WS1:308	
dual_issue_nums: WS0:38	WS1:38	
traffic_breakdown_coretomem[GLOBAL_ACC_W] = 26112 {136:192,}
traffic_breakdown_coretomem[INST_ACC_R] = 16 {8:2,}
traffic_breakdown_memtocore[GLOBAL_ACC_W] = 1536 {8:192,}
traffic_breakdown_memtocore[INST_ACC_R] = 272 {136:2,}
maxmflatency = 330 
max_icnt2mem_latency = 22 
maxmrqlatency = 72 
max_icnt2sh_latency = 10 
averagemflatency = 275 
avg_icnt2mem_latency = 27 
avg_mrq_latency = 14 
avg_icnt2sh_latency = 10 
mrq_lat_table:94 	1 	103 	46 	81 	60 	1 	0 	0 	0 	0 	0 	0 	0 	0 	0 	0 	0 	0 	0 	0 	0 	0 	0 	0 	0 	0 	0 	0 	0 	0 	0 	
dq_lat_table:0 	0 	0 	0 	0 	0 	0 	0 	0 	0 	0 	0 	0 	0 	0 	0 	0 	0 	0 	0 	0 	0 	0 	0 	0 	0 	0 	0 	0 	0 	0 	0 	
mf_lat_table:0 	0 	0 	0 	0 	0 	0 	0 	192 	0 	0 	0 	0 	0 	0 	0 	0 	0 	0 	0 	0 	0 	0 	0 	0 	0 	0 	0 	0 	0 	0 	0 	
icnt2mem_lat_table:0 	0 	0 	3 	191 	0 	0 	0 	0 	0 	0 	0 	0 	0 	0 	0 	0 	0 	0 	0 	0 	0 	0 	0 	
icnt2sh_lat_table:0 	0 	0 	192 	0 	0 	0 	0 	0 	0 	0 	0 	0 	0 	0 	0 	0 	0 	0 	0 	0 	0 	0 	0 	
mf_lat_pw_table:0 	0 	0 	0 	0 	0 	0 	0 	2 	0 	0 	0 	0 	0 	0 	0 	0 	0 	0 	0 	0 	0 	0 	0 	0 	0 	0 	0 	0 	0 	0 	0 	
maximum concurrent accesses to same row:
dram[0]:         1         1         0         0         0         0         0         0         0         0         0         0         0         0         0         0 
dram[1]:         0         0         0         0         0         0         0         0         0         0         0         0         0         0         0         0 
dram[2]:         0         0         0         0         0         0         0         0         0         0         0         0         0         0         0         0 
dram[3]:         0         0         0         0         0         0         0         0         0         0         0         0         0         0         0         0 
dram[4]:         0         0         0         0         0         0         0         0         0         0         0         0         0         0         0         0 
dram[5]:         0         0         0         0         0         0         0         0         0         0         0         0         0         0         0         0 
dram[6]:         0         0         0         0         0         0         0         0         0         0         0         0         0         0         0         0 
dram[7]:         0         0         0         0         0         0         0         0         0         0         0         0         0         0         0         0 
maximum service time to same row:
dram[0]:       876       690         0         0         0         0         0         0         0         0         0         0         0         0         0         0 
dram[1]:      1037      1030         0         0         0         0         0         0         0         0         0         0         0         0         0         0 
dram[2]:      1048      1042         0         0         0         0         0         0         0         0         0         0         0         0         0         0 
dram[3]:      1060      1055         0         0         0         0         0         0         0         0         0         0         0         0         0         0 
dram[4]:      1073      1066         0         0         0         0         0         0         0         0         0         0         0         0         0         0 
dram[5]:      1084      1078         0         0         0         0         0         0         0         0         0         0         0         0         0         0 
dram[6]:      1156      1150         0         0         0         0         0         0         0         0         0         0         0         0         0         0 
dram[7]:      1096      1091         0         0         0         0         0         0         0         0         0         0         0         0         0         0 
average row accesses per activate:
dram[0]: 12.500000 12.500000      -nan      -nan      -nan      -nan      -nan      -nan      -nan      -nan      -nan      -nan      -nan      -nan      -nan      -nan 
dram[1]: 24.000000 24.000000      -nan      -nan      -nan      -nan      -nan      -nan      -nan      -nan      -nan      -nan      -nan      -nan      -nan      -nan 
dram[2]: 24.000000 24.000000      -nan      -nan      -nan      -nan      -nan      -nan      -nan      -nan      -nan      -nan      -nan      -nan      -nan      -nan 
dram[3]: 24.000000 24.000000      -nan      -nan      -nan      -nan      -nan      -nan      -nan      -nan      -nan      -nan      -nan      -nan      -nan      -nan 
dram[4]: 24.000000 24.000000      -nan      -nan      -nan      -nan      -nan      -nan      -nan      -nan      -nan      -nan      -nan      -nan      -nan      -nan 
dram[5]: 24.000000 24.000000      -nan      -nan      -nan      -nan      -nan      -nan      -nan      -nan      -nan      -nan      -nan      -nan      -nan      -nan 
dram[6]: 24.000000 24.000000      -nan      -nan      -nan      -nan      -nan      -nan      -nan      -nan      -nan      -nan      -nan      -nan      -nan      -nan 
dram[7]: 24.000000 24.000000      -nan      -nan      -nan      -nan      -nan      -nan      -nan      -nan      -nan      -nan      -nan      -nan      -nan      -nan 
average row locality = 386/18 = 21.444445
number of total memory accesses made:
dram[0]:         0         0         0         0         0         0         0         0         0         0         0         0         0         0         0         0 
dram[1]:         0         0         0         0         0         0         0         0         0         0         0         0         0         0         0         0 
dram[2]:         0         0         0         0         0         0         0         0         0         0         0         0         0         0         0         0 
dram[3]:         0         0         0         0         0         0         0         0         0         0         0         0         0         0         0         0 
dram[4]:         0         0         0         0         0         0         0         0         0         0         0         0         0         0         0         0 
dram[5]:         0         0         0         0         0         0         0         0         0         0         0         0         0         0         0         0 
dram[6]:         0         0         0         0         0         0         0         0         0         0         0         0         0         0         0         0 
dram[7]:         0         0         0         0         0         0         0         0         0         0         0         0         0         0         0         0 
total accesses: 0
min_bank_accesses = 0!
min_chip_accesses = 0!
number of total read accesses:
dram[0]:        52        52         0         0         0         0         0         0         0         0         0         0         0         0         0         0 
dram[1]:        48        48         0         0         0         0         0         0         0         0         0         0         0         0         0         0 
dram[2]:        48        48         0         0         0         0         0         0         0         0         0         0         0         0         0         0 
dram[3]:        48        48         0         0         0         0         0         0         0         0         0         0         0         0         0         0 
dram[4]:        48        48         0         0         0         0         0         0         0         0         0         0         0         0         0         0 
dram[5]:        48        48         0         0         0         0         0         0         0         0         0         0         0         0         0         0 
dram[6]:        48        48         0         0         0         0         0         0         0         0         0         0         0         0         0         0 
dram[7]:        48        48         0         0         0         0         0         0         0         0         0         0         0         0         0         0 
total dram reads = 776
min_bank_accesses = 0!
chip skew: 104/96 = 1.08
number of total write accesses:
dram[0]:        48        48         0         0         0         0         0         0         0         0         0         0         0         0         0         0 
dram[1]:        48        48         0         0         0         0         0         0         0         0         0         0         0         0         0         0 
dram[2]:        48        48         0         0         0         0         0         0         0         0         0         0         0         0         0         0 
dram[3]:        48        48         0         0         0         0         0         0         0         0         0         0         0         0         0         0 
dram[4]:        48        48         0         0         0         0         0         0         0         0         0         0         0         0         0         0 
dram[5]:        48        48         0         0         0         0         0         0         0         0         0         0         0         0         0         0 
dram[6]:        48        48         0         0         0         0         0         0         0         0         0         0         0         0         0         0 
dram[7]:        48        48         0         0         0         0         0         0         0         0         0         0         0         0         0         0 
total dram writes = 768
min_bank_accesses = 0!
chip skew: 96/96 = 1.00
average mf latency per bank:
dram[0]:         33        33    none      none      none      none      none      none      none      none      none      none      none      none      none      none  
dram[1]:         34        35    none      none      none      none      none      none      none      none      none      none      none      none      none      none  
dram[2]:         34        34    none      none      none      none      none      none      none      none      none      none      none      none      none      none  
dram[3]:         34        34    none      none      none      none      none      none      none      none      none      none      none      none      none      none  
dram[4]:         34        34    none      none      none      none      none      none      none      none      none      none      none      none      none      none  
dram[5]:         34        35    none      none      none      none      none      none      none      none      none      none      none      none      none      none  
dram[6]:         34        35    none      none      none      none      none      none      none      none      none      none      none      none      none      none  
dram[7]:         34        34    none      none      none      none      none      none      none      none      none      none      none      none      none      none  
maximum mf latency per bank:
dram[0]:        303       309         0         0         0         0         0         0         0         0         0         0         0         0         0         0
dram[1]:        319       330         0         0         0         0         0         0         0         0         0         0         0         0         0         0
dram[2]:        303       309         0         0         0         0         0         0         0         0         0         0         0         0         0         0
dram[3]:        305       311         0         0         0         0         0         0         0         0         0         0         0         0         0         0
dram[4]:        303       309         0         0         0         0         0         0         0         0         0         0         0         0         0         0
dram[5]:        305       310         0         0         0         0         0         0         0         0         0         0         0         0         0         0
dram[6]:        303       309         0         0         0         0         0         0         0         0         0         0         0         0         0         0
dram[7]:        305       309         0         0         0         0         0         0         0         0         0         0         0         0         0         0
Memory Partition 0: 
Cache L2_bank_000:
MSHR contents

Cache L2_bank_001:
MSHR contents

In Dram Latency Queue (total = 0): 
DRAM[0]: 16 bks, busW=4 BL=8 CL=12, tRRD=6 tCCD=2, tRCD=12 tRAS=28 tRP=12 tRC=40
n_cmd=3476 n_nop=3270 n_act=4 n_pre=2 n_ref_event=0 n_req=50 n_rd=8 n_rd_L2_A=96 n_write=96 n_wr_bk=0 bw_util=0.1151
n_activity=717 dram_eff=0.5579
bk0: 52a 2999i bk1: 52a 2900i bk2: 0a 3473i bk3: 0a 3476i bk4: 0a 3476i bk5: 0a 3476i bk6: 0a 3476i bk7: 0a 3476i bk8: 0a 3476i bk9: 0a 3476i bk10: 0a 3476i bk11: 0a 3476i bk12: 0a 3476i bk13: 0a 3476i bk14: 0a 3476i bk15: 0a 3477i 

------------------------------------------------------------------------

Row_Buffer_Locality = 0.920000
Row_Buffer_Locality_read = 0.923077
Row_Buffer_Locality_write = 0.916667
Bank_Level_Parallism = 1.779032
Bank_Level_Parallism_Col = 1.776860
Bank_Level_Parallism_Ready = 1.380000
write_to_read_ratio_blp_rw_average = 0.393388
GrpLevelPara = 1.000000 

BW Util details:
bwutil = 0.115075 
total_CMD = 3476 
util_bw = 400 
Wasted_Col = 215 
Wasted_Row = 12 
Idle = 2849 

BW Util Bottlenecks: 
RCDc_limit = 24 
RCDWRc_limit = 9 
WTRc_limit = 222 
RTWc_limit = 136 
CCDLc_limit = 0 
rwq = 0 
CCDLc_limit_alone = 0 
WTRc_limit_alone = 222 
RTWc_limit_alone = 136 

Commands details: 
total_CMD = 3476 
n_nop = 3270 
Read = 8 
Write = 96 
L2_Alloc = 96 
L2_WB = 0 
n_act = 4 
n_pre = 2 
n_ref = 0 
n_req = 50 
total_req = 200 

Dual Bus Interface Util: 
issued_total_row = 6 
issued_total_col = 200 
Row_Bus_Util =  0.001726 
CoL_Bus_Util = 0.057537 
Either_Row_CoL_Bus_Util = 0.059264 
Issued_on_Two_Bus_Simul_Util = 0.000000 
issued_two_Eff = 0.000000 
queue_avg = 0.310127 


dram_util_bins: 0 0 0 0 0 0 0 0 0 0
dram_eff_bins: 0 0 0 0 0 0 0 0 0 0
mrqq: max=6 avg=0.310127
Memory Partition 1: 
Cache L2_bank_002:
MSHR contents

Cache L2_bank_003:
MSHR contents

In Dram Latency Queue (total = 0): 
DRAM[1]: 16 bks, busW=4 BL=8 CL=12, tRRD=6 tCCD=2, tRCD=12 tRAS=28 tRP=12 tRC=40
n_cmd=3476 n_nop=3282 n_act=2 n_pre=0 n_ref_event=0 n_req=48 n_rd=0 n_rd_L2_A=96 n_write=96 n_wr_bk=0 bw_util=0.1105
n_activity=626 dram_eff=0.6134
bk0: 48a 3026i bk1: 48a 2929i bk2: 0a 3474i bk3: 0a 3476i bk4: 0a 3476i bk5: 0a 3476i bk6: 0a 3476i bk7: 0a 3476i bk8: 0a 3476i bk9: 0a 3476i bk10: 0a 3476i bk11: 0a 3476i bk12: 0a 3476i bk13: 0a 3476i bk14: 0a 3476i bk15: 0a 3477i 

------------------------------------------------------------------------

Row_Buffer_Locality = 0.958333
Row_Buffer_Locality_read = 1.000000
Row_Buffer_Locality_write = 0.916667
Bank_Level_Parallism = 1.830123
Bank_Level_Parallism_Col = 1.829825
Bank_Level_Parallism_Ready = 1.395833
write_to_read_ratio_blp_rw_average = 0.417544
GrpLevelPara = 1.000000 

BW Util details:
bwutil = 0.110472 
total_CMD = 3476 
util_bw = 384 
Wasted_Col = 192 
Wasted_Row = 0 
Idle = 2900 

BW Util Bottlenecks: 
RCDc_limit = 0 
RCDWRc_limit = 9 
WTRc_limit = 223 
RTWc_limit = 139 
CCDLc_limit = 0 
rwq = 0 
CCDLc_limit_alone = 0 
WTRc_limit_alone = 223 
RTWc_limit_alone = 139 

Commands details: 
total_CMD = 3476 
n_nop = 3282 
Read = 0 
Write = 96 
L2_Alloc = 96 
L2_WB = 0 
n_act = 2 
n_pre = 0 
n_ref = 0 
n_req = 48 
total_req = 192 

Dual Bus Interface Util: 
issued_total_row = 2 
issued_total_col = 192 
Row_Bus_Util =  0.000575 
CoL_Bus_Util = 0.055236 
Either_Row_CoL_Bus_Util = 0.055811 
Issued_on_Two_Bus_Simul_Util = 0.000000 
issued_two_Eff = 0.000000 
queue_avg = 0.385213 


dram_util_bins: 0 0 0 0 0 0 0 0 0 0
dram_eff_bins: 0 0 0 0 0 0 0 0 0 0
mrqq: max=8 avg=0.385213
Memory Partition 2: 
Cache L2_bank_004:
MSHR contents

Cache L2_bank_005:
MSHR contents

In Dram Latency Queue (total = 0): 
DRAM[2]: 16 bks, busW=4 BL=8 CL=12, tRRD=6 tCCD=2, tRCD=12 tRAS=28 tRP=12 tRC=40
n_cmd=3476 n_nop=3282 n_act=2 n_pre=0 n_ref_event=0 n_req=48 n_rd=0 n_rd_L2_A=96 n_write=96 n_wr_bk=0 bw_util=0.1105
n_activity=628 dram_eff=0.6115
bk0: 48a 3070i bk1: 48a 2949i bk2: 0a 3474i bk3: 0a 3476i bk4: 0a 3476i bk5: 0a 3476i bk6: 0a 3476i bk7: 0a 3476i bk8: 0a 3476i bk9: 0a 3476i bk10: 0a 3476i bk11: 0a 3476i bk12: 0a 3476i bk13: 0a 3476i bk14: 0a 3476i bk15: 0a 3477i 

------------------------------------------------------------------------

Row_Buffer_Locality = 0.958333
Row_Buffer_Locality_read = 1.000000
Row_Buffer_Locality_write = 0.916667
Bank_Level_Parallism = 1.780399
Bank_Level_Parallism_Col = 1.780000
Bank_Level_Parallism_Ready = 1.352332
write_to_read_ratio_blp_rw_average = 0.383636
GrpLevelPara = 1.000000 

BW Util details:
bwutil = 0.110472 
total_CMD = 3476 
util_bw = 384 
Wasted_Col = 174 
Wasted_Row = 0 
Idle = 2918 

BW Util Bottlenecks: 
RCDc_limit = 0 
RCDWRc_limit = 8 
WTRc_limit = 224 
RTWc_limit = 100 
CCDLc_limit = 0 
rwq = 0 
CCDLc_limit_alone = 0 
WTRc_limit_alone = 224 
RTWc_limit_alone = 100 

Commands details: 
total_CMD = 3476 
n_nop = 3282 
Read = 0 
Write = 96 
L2_Alloc = 96 
L2_WB = 0 
n_act = 2 
n_pre = 0 
n_ref = 0 
n_req = 48 
total_req = 192 

Dual Bus Interface Util: 
issued_total_row = 2 
issued_total_col = 192 
Row_Bus_Util =  0.000575 
CoL_Bus_Util = 0.055236 
Either_Row_CoL_Bus_Util = 0.055811 
Issued_on_Two_Bus_Simul_Util = 0.000000 
issued_two_Eff = 0.000000 
queue_avg = 0.250575 


dram_util_bins: 0 0 0 0 0 0 0 0 0 0
dram_eff_bins: 0 0 0 0 0 0 0 0 0 0
mrqq: max=6 avg=0.250575
Memory Partition 3: 
Cache L2_bank_006:
MSHR contents

Cache L2_bank_007:
MSHR contents

In Dram Latency Queue (total = 0): 
DRAM[3]: 16 bks, busW=4 BL=8 CL=12, tRRD=6 tCCD=2, tRCD=12 tRAS=28 tRP=12 tRC=40
n_cmd=3476 n_nop=3282 n_act=2 n_pre=0 n_ref_event=0 n_req=48 n_rd=0 n_rd_L2_A=96 n_write=96 n_wr_bk=0 bw_util=0.1105
n_activity=629 dram_eff=0.6105
bk0: 48a 3043i bk1: 48a 2937i bk2: 0a 3474i bk3: 0a 3476i bk4: 0a 3476i bk5: 0a 3476i bk6: 0a 3476i bk7: 0a 3476i bk8: 0a 3476i bk9: 0a 3476i bk10: 0a 3476i bk11: 0a 3476i bk12: 0a 3476i bk13: 0a 3476i bk14: 0a 3476i bk15: 0a 3477i 

------------------------------------------------------------------------

Row_Buffer_Locality = 0.958333
Row_Buffer_Locality_read = 1.000000
Row_Buffer_Locality_write = 0.916667
Bank_Level_Parallism = 1.811723
Bank_Level_Parallism_Col = 1.811388
Bank_Level_Parallism_Ready = 1.373057
write_to_read_ratio_blp_rw_average = 0.403025
GrpLevelPara = 1.000000 

BW Util details:
bwutil = 0.110472 
total_CMD = 3476 
util_bw = 384 
Wasted_Col = 185 
Wasted_Row = 0 
Idle = 2907 

BW Util Bottlenecks: 
RCDc_limit = 0 
RCDWRc_limit = 8 
WTRc_limit = 225 
RTWc_limit = 120 
CCDLc_limit = 0 
rwq = 0 
CCDLc_limit_alone = 0 
WTRc_limit_alone = 225 
RTWc_limit_alone = 120 

Commands details: 
total_CMD = 3476 
n_nop = 3282 
Read = 0 
Write = 96 
L2_Alloc = 96 
L2_WB = 0 
n_act = 2 
n_pre = 0 
n_ref = 0 
n_req = 48 
total_req = 192 

Dual Bus Interface Util: 
issued_total_row = 2 
issued_total_col = 192 
Row_Bus_Util =  0.000575 
CoL_Bus_Util = 0.055236 
Either_Row_CoL_Bus_Util = 0.055811 
Issued_on_Two_Bus_Simul_Util = 0.000000 
issued_two_Eff = 0.000000 
queue_avg = 0.280207 


dram_util_bins: 0 0 0 0 0 0 0 0 0 0
dram_eff_bins: 0 0 0 0 0 0 0 0 0 0
mrqq: max=6 avg=0.280207
Memory Partition 4: 
Cache L2_bank_008:
MSHR contents

Cache L2_bank_009:
MSHR contents

In Dram Latency Queue (total = 0): 
DRAM[4]: 16 bks, busW=4 BL=8 CL=12, tRRD=6 tCCD=2, tRCD=12 tRAS=28 tRP=12 tRC=40
n_cmd=3476 n_nop=3282 n_act=2 n_pre=0 n_ref_event=0 n_req=48 n_rd=0 n_rd_L2_A=96 n_write=96 n_wr_bk=0 bw_util=0.1105
n_activity=627 dram_eff=0.6124
bk0: 48a 3043i bk1: 48a 2939i bk2: 0a 3474i bk3: 0a 3476i bk4: 0a 3476i bk5: 0a 3476i bk6: 0a 3476i bk7: 0a 3476i bk8: 0a 3476i bk9: 0a 3476i bk10: 0a 3476i bk11: 0a 3476i bk12: 0a 3476i bk13: 0a 3476i bk14: 0a 3476i bk15: 0a 3477i 

------------------------------------------------------------------------

Row_Buffer_Locality = 0.958333
Row_Buffer_Locality_read = 1.000000
Row_Buffer_Locality_write = 0.916667
Bank_Level_Parallism = 1.814617
Bank_Level_Parallism_Col = 1.814286
Bank_Level_Parallism_Ready = 1.375000
write_to_read_ratio_blp_rw_average = 0.404464
GrpLevelPara = 1.000000 

BW Util details:
bwutil = 0.110472 
total_CMD = 3476 
util_bw = 384 
Wasted_Col = 183 
Wasted_Row = 0 
Idle = 2909 

BW Util Bottlenecks: 
RCDc_limit = 0 
RCDWRc_limit = 9 
WTRc_limit = 224 
RTWc_limit = 120 
CCDLc_limit = 0 
rwq = 0 
CCDLc_limit_alone = 0 
WTRc_limit_alone = 224 
RTWc_limit_alone = 120 

Commands details: 
total_CMD = 3476 
n_nop = 3282 
Read = 0 
Write = 96 
L2_Alloc = 96 
L2_WB = 0 
n_act = 2 
n_pre = 0 
n_ref = 0 
n_req = 48 
total_req = 192 

Dual Bus Interface Util: 
issued_total_row = 2 
issued_total_col = 192 
Row_Bus_Util =  0.000575 
CoL_Bus_Util = 0.055236 
Either_Row_CoL_Bus_Util = 0.055811 
Issued_on_Two_Bus_Simul_Util = 0.000000 
issued_two_Eff = 0.000000 
queue_avg = 0.277906 


dram_util_bins: 0 0 0 0 0 0 0 0 0 0
dram_eff_bins: 0 0 0 0 0 0 0 0 0 0
mrqq: max=6 avg=0.277906
Memory Partition 5: 
Cache L2_bank_010:
MSHR contents

Cache L2_bank_011:
MSHR contents

In Dram Latency Queue (total = 0): 
DRAM[5]: 16 bks, busW=4 BL=8 CL=12, tRRD=6 tCCD=2, tRCD=12 tRAS=28 tRP=12 tRC=40
n_cmd=3476 n_nop=3282 n_act=2 n_pre=0 n_ref_event=0 n_req=48 n_rd=0 n_rd_L2_A=96 n_write=96 n_wr_bk=0 bw_util=0.1105
n_activity=626 dram_eff=0.6134
bk0: 48a 3016i bk1: 48a 2929i bk2: 0a 3474i bk3: 0a 3476i bk4: 0a 3476i bk5: 0a 3476i bk6: 0a 3476i bk7: 0a 3476i bk8: 0a 3476i bk9: 0a 3476i bk10: 0a 3476i bk11: 0a 3476i bk12: 0a 3476i bk13: 0a 3476i bk14: 0a 3476i bk15: 0a 3477i 

------------------------------------------------------------------------

Row_Buffer_Locality = 0.958333
Row_Buffer_Locality_read = 1.000000
Row_Buffer_Locality_write = 0.916667
Bank_Level_Parallism = 1.847636
Bank_Level_Parallism_Col = 1.847368
Bank_Level_Parallism_Ready = 1.393782
write_to_read_ratio_blp_rw_average = 0.424561
GrpLevelPara = 1.000000 

BW Util details:
bwutil = 0.110472 
total_CMD = 3476 
util_bw = 384 
Wasted_Col = 192 
Wasted_Row = 0 
Idle = 2900 

BW Util Bottlenecks: 
RCDc_limit = 0 
RCDWRc_limit = 8 
WTRc_limit = 222 
RTWc_limit = 140 
CCDLc_limit = 0 
rwq = 0 
CCDLc_limit_alone = 0 
WTRc_limit_alone = 222 
RTWc_limit_alone = 140 

Commands details: 
total_CMD = 3476 
n_nop = 3282 
Read = 0 
Write = 96 
L2_Alloc = 96 
L2_WB = 0 
n_act = 2 
n_pre = 0 
n_ref = 0 
n_req = 48 
total_req = 192 

Dual Bus Interface Util: 
issued_total_row = 2 
issued_total_col = 192 
Row_Bus_Util =  0.000575 
CoL_Bus_Util = 0.055236 
Either_Row_CoL_Bus_Util = 0.055811 
Issued_on_Two_Bus_Simul_Util = 0.000000 
issued_two_Eff = 0.000000 
queue_avg = 0.342635 


dram_util_bins: 0 0 0 0 0 0 0 0 0 0
dram_eff_bins: 0 0 0 0 0 0 0 0 0 0
mrqq: max=6 avg=0.342635
Memory Partition 6: 
Cache L2_bank_012:
MSHR contents

Cache L2_bank_013:
MSHR contents

In Dram Latency Queue (total = 0): 
DRAM[6]: 16 bks, busW=4 BL=8 CL=12, tRRD=6 tCCD=2, tRCD=12 tRAS=28 tRP=12 tRC=40
n_cmd=3476 n_nop=3282 n_act=2 n_pre=0 n_ref_event=0 n_req=48 n_rd=0 n_rd_L2_A=96 n_write=96 n_wr_bk=0 bw_util=0.1105
n_activity=625 dram_eff=0.6144
bk0: 48a 3016i bk1: 48a 2930i bk2: 0a 3474i bk3: 0a 3476i bk4: 0a 3476i bk5: 0a 3476i bk6: 0a 3476i bk7: 0a 3476i bk8: 0a 3476i bk9: 0a 3476i bk10: 0a 3476i bk11: 0a 3476i bk12: 0a 3476i bk13: 0a 3476i bk14: 0a 3476i bk15: 0a 3477i 

------------------------------------------------------------------------

Row_Buffer_Locality = 0.958333
Row_Buffer_Locality_read = 1.000000
Row_Buffer_Locality_write = 0.916667
Bank_Level_Parallism = 1.849123
Bank_Level_Parallism_Col = 1.848858
Bank_Level_Parallism_Ready = 1.393782
write_to_read_ratio_blp_rw_average = 0.425308
GrpLevelPara = 1.000000 

BW Util details:
bwutil = 0.110472 
total_CMD = 3476 
util_bw = 384 
Wasted_Col = 191 
Wasted_Row = 0 
Idle = 2901 

BW Util Bottlenecks: 
RCDc_limit = 0 
RCDWRc_limit = 8 
WTRc_limit = 221 
RTWc_limit = 140 
CCDLc_limit = 0 
rwq = 0 
CCDLc_limit_alone = 0 
WTRc_limit_alone = 221 
RTWc_limit_alone = 140 

Commands details: 
total_CMD = 3476 
n_nop = 3282 
Read = 0 
Write = 96 
L2_Alloc = 96 
L2_WB = 0 
n_act = 2 
n_pre = 0 
n_ref = 0 
n_req = 48 
total_req = 192 

Dual Bus Interface Util: 
issued_total_row = 2 
issued_total_col = 192 
Row_Bus_Util =  0.000575 
CoL_Bus_Util = 0.055236 
Either_Row_CoL_Bus_Util = 0.055811 
Issued_on_Two_Bus_Simul_Util = 0.000000 
issued_two_Eff = 0.000000 
queue_avg = 0.342923 


dram_util_bins: 0 0 0 0 0 0 0 0 0 0
dram_eff_bins: 0 0 0 0 0 0 0 0 0 0
mrqq: max=6 avg=0.342923
Memory Partition 7: 
Cache L2_bank_014:
MSHR contents
MSHR: tag=0xbb505f00, atomic=0 1 entries : 0x56059b59cf20 :  mf: uid=   768, sid00:w31, part=7, addr=0x7f5ebb505f00, load , size=128, unknown  status = IN_PARTITION_DRAM (2233), 

Cache L2_bank_015:
MSHR contents
MSHR: tag=0xbb505f80, atomic=0 1 entries : 0x56059b5ab620 :  mf: uid=   767, sid00:w31, part=7, addr=0x7f5ebb505f80, load , size=128, unknown  status = IN_PARTITION_DRAM (2234), 

In Dram Latency Queue (total = 0): 
DRAM[7]: 16 bks, busW=4 BL=8 CL=12, tRRD=6 tCCD=2, tRCD=12 tRAS=28 tRP=12 tRC=40
n_cmd=3476 n_nop=3285 n_act=2 n_pre=0 n_ref_event=0 n_req=48 n_rd=0 n_rd_L2_A=93 n_write=96 n_wr_bk=0 bw_util=0.1087
n_activity=611 dram_eff=0.6187
bk0: 48a 3043i bk1: 45a 2943i bk2: 0a 3474i bk3: 0a 3476i bk4: 0a 3476i bk5: 0a 3476i bk6: 0a 3476i bk7: 0a 3476i bk8: 0a 3476i bk9: 0a 3476i bk10: 0a 3476i bk11: 0a 3476i bk12: 0a 3476i bk13: 0a 3476i bk14: 0a 3476i bk15: 0a 3477i 

------------------------------------------------------------------------

Row_Buffer_Locality = 0.958333
Row_Buffer_Locality_read = 1.000000
Row_Buffer_Locality_write = 0.916667
Bank_Level_Parallism = 1.821942
Bank_Level_Parallism_Col = 1.821622
Bank_Level_Parallism_Ready = 1.378947
write_to_read_ratio_blp_rw_average = 0.408108
GrpLevelPara = 1.000000 

BW Util details:
bwutil = 0.108746 
total_CMD = 3476 
util_bw = 377 
Wasted_Col = 184 
Wasted_Row = 0 
Idle = 2915 

BW Util Bottlenecks: 
RCDc_limit = 0 
RCDWRc_limit = 8 
WTRc_limit = 224 
RTWc_limit = 120 
CCDLc_limit = 0 
rwq = 0 
CCDLc_limit_alone = 0 
WTRc_limit_alone = 224 
RTWc_limit_alone = 120 

Commands details: 
total_CMD = 3476 
n_nop = 3285 
Read = 0 
Write = 96 
L2_Alloc = 93 
L2_WB = 0 
n_act = 2 
n_pre = 0 
n_ref = 0 
n_req = 48 
total_req = 189 

Dual Bus Interface Util: 
issued_total_row = 2 
issued_total_col = 189 
Row_Bus_Util =  0.000575 
CoL_Bus_Util = 0.054373 
Either_Row_CoL_Bus_Util = 0.054948 
Issued_on_Two_Bus_Simul_Util = 0.000000 
issued_two_Eff = 0.000000 
queue_avg = 0.278193 


dram_util_bins: 0 0 0 0 0 0 0 0 0 0
dram_eff_bins: 0 0 0 0 0 0 0 0 0 0
mrqq: max=6 avg=0.278193

========= L2 cache stats =========
L2_cache_bank[0]: Access = 13, Miss = 13, Miss_rate = 1.000, Pending_hits = 0, Reservation_fails = 0
L2_cache_bank[1]: Access = 13, Miss = 13, Miss_rate = 1.000, Pending_hits = 0, Reservation_fails = 0
L2_cache_bank[2]: Access = 12, Miss = 12, Miss_rate = 1.000, Pending_hits = 0, Reservation_fails = 0
L2_cache_bank[3]: Access = 12, Miss = 12, Miss_rate = 1.000, Pending_hits = 0, Reservation_fails = 0
L2_cache_bank[4]: Access = 12, Miss = 12, Miss_rate = 1.000, Pending_hits = 0, Reservation_fails = 0
L2_cache_bank[5]: Access = 12, Miss = 12, Miss_rate = 1.000, Pending_hits = 0, Reservation_fails = 0
L2_cache_bank[6]: Access = 12, Miss = 12, Miss_rate = 1.000, Pending_hits = 0, Reservation_fails = 0
L2_cache_bank[7]: Access = 12, Miss = 12, Miss_rate = 1.000, Pending_hits = 0, Reservation_fails = 0
L2_cache_bank[8]: Access = 12, Miss = 12, Miss_rate = 1.000, Pending_hits = 0, Reservation_fails = 0
L2_cache_bank[9]: Access = 12, Miss = 12, Miss_rate = 1.000, Pending_hits = 0, Reservation_fails = 0
L2_cache_bank[10]: Access = 12, Miss = 12, Miss_rate = 1.000, Pending_hits = 0, Reservation_fails = 0
L2_cache_bank[11]: Access = 12, Miss = 12, Miss_rate = 1.000, Pending_hits = 0, Reservation_fails = 0
L2_cache_bank[12]: Access = 12, Miss = 12, Miss_rate = 1.000, Pending_hits = 0, Reservation_fails = 0
L2_cache_bank[13]: Access = 12, Miss = 12, Miss_rate = 1.000, Pending_hits = 0, Reservation_fails = 0
L2_cache_bank[14]: Access = 12, Miss = 12, Miss_rate = 1.000, Pending_hits = 0, Reservation_fails = 0
L2_cache_bank[15]: Access = 12, Miss = 12, Miss_rate = 1.000, Pending_hits = 0, Reservation_fails = 0
L2_total_cache_accesses = 194
L2_total_cache_misses = 194
L2_total_cache_miss_rate = 1.0000
L2_total_cache_pending_hits = 0
L2_total_cache_reservation_fails = 0
L2_total_cache_breakdown:
	L2_cache_stats_breakdown[GLOBAL_ACC_R][HIT] = 0
	L2_cache_stats_breakdown[GLOBAL_ACC_R][HIT_RESERVED] = 0
	L2_cache_stats_breakdown[GLOBAL_ACC_R][MISS] = 0
	L2_cache_stats_breakdown[GLOBAL_ACC_R][RESERVATION_FAIL] = 0
	L2_cache_stats_breakdown[GLOBAL_ACC_R][SECTOR_MISS] = 0
	L2_cache_stats_breakdown[GLOBAL_ACC_R][MSHR_HIT] = 0
	L2_cache_stats_breakdown[LOCAL_ACC_R][HIT] = 0
	L2_cache_stats_breakdown[LOCAL_ACC_R][HIT_RESERVED] = 0
	L2_cache_stats_breakdown[LOCAL_ACC_R][MISS] = 0
	L2_cache_stats_breakdown[LOCAL_ACC_R][RESERVATION_FAIL] = 0
	L2_cache_stats_breakdown[LOCAL_ACC_R][SECTOR_MISS] = 0
	L2_cache_stats_breakdown[LOCAL_ACC_R][MSHR_HIT] = 0
	L2_cache_stats_breakdown[CONST_ACC_R][HIT] = 0
	L2_cache_stats_breakdown[CONST_ACC_R][HIT_RESERVED] = 0
	L2_cache_stats_breakdown[CONST_ACC_R][MISS] = 0
	L2_cache_stats_breakdown[CONST_ACC_R][RESERVATION_FAIL] = 0
	L2_cache_stats_breakdown[CONST_ACC_R][SECTOR_MISS] = 0
	L2_cache_stats_breakdown[CONST_ACC_R][MSHR_HIT] = 0
	L2_cache_stats_breakdown[TEXTURE_ACC_R][HIT] = 0
	L2_cache_stats_breakdown[TEXTURE_ACC_R][HIT_RESERVED] = 0
	L2_cache_stats_breakdown[TEXTURE_ACC_R][MISS] = 0
	L2_cache_stats_breakdown[TEXTURE_ACC_R][RESERVATION_FAIL] = 0
	L2_cache_stats_breakdown[TEXTURE_ACC_R][SECTOR_MISS] = 0
	L2_cache_stats_breakdown[TEXTURE_ACC_R][MSHR_HIT] = 0
	L2_cache_stats_breakdown[GLOBAL_ACC_W][HIT] = 0
	L2_cache_stats_breakdown[GLOBAL_ACC_W][HIT_RESERVED] = 0
	L2_cache_stats_breakdown[GLOBAL_ACC_W][MISS] = 192
	L2_cache_stats_breakdown[GLOBAL_ACC_W][RESERVATION_FAIL] = 0
	L2_cache_stats_breakdown[GLOBAL_ACC_W][SECTOR_MISS] = 0
	L2_cache_stats_breakdown[GLOBAL_ACC_W][MSHR_HIT] = 0
	L2_cache_stats_breakdown[LOCAL_ACC_W][HIT] = 0
	L2_cache_stats_breakdown[LOCAL_ACC_W][HIT_RESERVED] = 0
	L2_cache_stats_breakdown[LOCAL_ACC_W][MISS] = 0
	L2_cache_stats_breakdown[LOCAL_ACC_W][RESERVATION_FAIL] = 0
	L2_cache_stats_breakdown[LOCAL_ACC_W][SECTOR_MISS] = 0
	L2_cache_stats_breakdown[LOCAL_ACC_W][MSHR_HIT] = 0
	L2_cache_stats_breakdown[L1_WRBK_ACC][HIT] = 0
	L2_cache_stats_breakdown[L1_WRBK_ACC][HIT_RESERVED] = 0
	L2_cache_stats_breakdown[L1_WRBK_ACC][MISS] = 0
	L2_cache_stats_breakdown[L1_WRBK_ACC][RESERVATION_FAIL] = 0
	L2_cache_stats_breakdown[L1_WRBK_ACC][SECTOR_MISS] = 0
	L2_cache_stats_breakdown[L1_WRBK_ACC][MSHR_HIT] = 0
	L2_cache_stats_breakdown[L2_WRBK_ACC][HIT] = 0
	L2_cache_stats_breakdown[L2_WRBK_ACC][HIT_RESERVED] = 0
	L2_cache_stats_breakdown[L2_WRBK_ACC][MISS] = 0
	L2_cache_stats_breakdown[L2_WRBK_ACC][RESERVATION_FAIL] = 0
	L2_cache_stats_breakdown[L2_WRBK_ACC][SECTOR_MISS] = 0
	L2_cache_stats_breakdown[L2_WRBK_ACC][MSHR_HIT] = 0
	L2_cache_stats_breakdown[INST_ACC_R][HIT] = 0
	L2_cache_stats_breakdown[INST_ACC_R][HIT_RESERVED] = 0
	L2_cache_stats_breakdown[INST_ACC_R][MISS] = 2
	L2_cache_stats_breakdown[INST_ACC_R][RESERVATION_FAIL] = 0
	L2_cache_stats_breakdown[INST_ACC_R][SECTOR_MISS] = 0
	L2_cache_stats_breakdown[INST_ACC_R][MSHR_HIT] = 0
	L2_cache_stats_breakdown[L1_WR_ALLOC_R][HIT] = 0
	L2_cache_stats_breakdown[L1_WR_ALLOC_R][HIT_RESERVED] = 0
	L2_cache_stats_breakdown[L1_WR_ALLOC_R][MISS] = 0
	L2_cache_stats_breakdown[L1_WR_ALLOC_R][RESERVATION_FAIL] = 0
	L2_cache_stats_breakdown[L1_WR_ALLOC_R][SECTOR_MISS] = 0
	L2_cache_stats_breakdown[L1_WR_ALLOC_R][MSHR_HIT] = 0
	L2_cache_stats_breakdown[L2_WR_ALLOC_R][HIT] = 0
	L2_cache_stats_breakdown[L2_WR_ALLOC_R][HIT_RESERVED] = 0
	L2_cache_stats_breakdown[L2_WR_ALLOC_R][MISS] = 0
	L2_cache_stats_breakdown[L2_WR_ALLOC_R][RESERVATION_FAIL] = 0
	L2_cache_stats_breakdown[L2_WR_ALLOC_R][SECTOR_MISS] = 0
	L2_cache_stats_breakdown[L2_WR_ALLOC_R][MSHR_HIT] = 0
	L2_cache_stats_breakdown[GLOBAL_ACC_W][TOTAL_ACCESS] = 192
	L2_cache_stats_breakdown[INST_ACC_R][TOTAL_ACCESS] = 2
L2_total_cache_reservation_fail_breakdown:
L2_cache_data_port_util = 0.000
L2_cache_fill_port_util = 0.021

icnt_total_pkts_mem_to_simt=202
icnt_total_pkts_simt_to_mem=962
LD_mem_lat_dist  0 0 0 0 0 0 0 0 0 0 0 0 0 0 0 0 0 0 0 0 0 0 0 0 0 0 0
ST_mem_lat_dist  0 0 0 0 0 0 0 0 0 0 0 0 0 0 0 0 0 0 0 0 0 0 0 0 0 0 0
----------------------------Interconnect-DETAILS--------------------------------
Class 0:
Packet latency average = 12.9897
	minimum = 6
	maximum = 20
Network latency average = 10.5412
	minimum = 6
	maximum = 15
Slowest packet = 5
Flit latency average = 9.7732
	minimum = 6
	maximum = 11
Slowest flit = 37
Fragmentation average = 0
	minimum = 0
	maximum = 0
Injected packet rate average = 0.00347204
	minimum = 0 (at node 1)
	maximum = 0.0868009 (at node 0)
Accepted packet rate average = 0.00347204
	minimum = 0 (at node 1)
	maximum = 0.0868009 (at node 0)
Injected flit rate average = 0.0104161
	minimum = 0 (at node 1)
	maximum = 0.430425 (at node 0)
Accepted flit rate average= 0.0104161
	minimum = 0 (at node 1)
	maximum = 0.0903803 (at node 0)
Injected packet length average = 3
Accepted packet length average = 3
Total in-flight flits = 0 (0 measured)
====== Overall Traffic Statistics ======
====== Traffic class 0 ======
Packet latency average = 12.9897 (1 samples)
	minimum = 6 (1 samples)
	maximum = 20 (1 samples)
Network latency average = 10.5412 (1 samples)
	minimum = 6 (1 samples)
	maximum = 15 (1 samples)
Flit latency average = 9.7732 (1 samples)
	minimum = 6 (1 samples)
	maximum = 11 (1 samples)
Fragmentation average = 0 (1 samples)
	minimum = 0 (1 samples)
	maximum = 0 (1 samples)
Injected packet rate average = 0.00347204 (1 samples)
	minimum = 0 (1 samples)
	maximum = 0.0868009 (1 samples)
Accepted packet rate average = 0.00347204 (1 samples)
	minimum = 0 (1 samples)
	maximum = 0.0868009 (1 samples)
Injected flit rate average = 0.0104161 (1 samples)
	minimum = 0 (1 samples)
	maximum = 0.430425 (1 samples)
Accepted flit rate average = 0.0104161 (1 samples)
	minimum = 0 (1 samples)
	maximum = 0.0903803 (1 samples)
Injected packet size average = 3 (1 samples)
Accepted packet size average = 3 (1 samples)
Hops average = 1 (1 samples)
----------------------------END-of-Interconnect-DETAILS-------------------------


gpgpu_simulation_time = 0 days, 0 hrs, 0 min, 1 sec (1 sec)
gpgpu_simulation_rate = 24576 (inst/sec)
gpgpu_simulation_rate = 2235 (cycle/sec)
gpgpu_silicon_slowdown = 719015x
Processing kernel /benchrun/accelsim-sass/sm6_gtx1080/babelstream/input-arraysize-1024-numtimes-2/results/traces/kernel-2.traceg
-kernel name = _Z11copy_kernelIdEvPKT_PS0_
-kernel id = 2
-grid dim = (1,1,1)
-block dim = (1024,1,1)
-shmem = 0
-nregs = 6
-binary version = 61
-cuda stream id = 0
-shmem base_addr = 0x00007f5ee7000000
-local mem base_addr = 0x00007f5ee5000000
-nvbit version = 1.5.5
-accelsim tracer version = 3
Header info loaded for kernel command : /benchrun/accelsim-sass/sm6_gtx1080/babelstream/input-arraysize-1024-numtimes-2/results/traces/kernel-2.traceg
launching kernel name: _Z11copy_kernelIdEvPKT_PS0_ uid: 2
GPGPU-Sim uArch: Shader 1 bind to kernel 2 '_Z11copy_kernelIdEvPKT_PS0_'
thread block = 0,0,0
Destroy streams for kernel 2: size 0
kernel_name = _Z11copy_kernelIdEvPKT_PS0_ 
kernel_launch_uid = 2 
gpu_sim_cycle = 1143
gpu_sim_insn = 15360
gpu_ipc =      13.4383
gpu_tot_sim_cycle = 3378
gpu_tot_sim_insn = 39936
gpu_tot_ipc =      11.8224
gpu_tot_issued_cta = 2
gpu_occupancy = 42.0999% 
gpu_tot_occupancy = 39.9336% 
max_total_param_size = 0
gpu_stall_dramfull = 0
gpu_stall_icnt2sh    = 96
partiton_level_parallism =       0.1137
partiton_level_parallism_total  =       0.0959
partiton_level_parallism_util =       1.0000
partiton_level_parallism_util_total  =       1.0000
L2_BW  =       5.8487 GB/Sec
L2_BW_total  =       4.9323 GB/Sec
gpu_total_sim_rate=39936

========= Core cache stats =========
L1I_cache:
	L1I_total_cache_accesses = 640
	L1I_total_cache_misses = 128
	L1I_total_cache_miss_rate = 0.2000
	L1I_total_cache_pending_hits = 0
	L1I_total_cache_reservation_fails = 0
L1D_cache:
	L1D_cache_core[0]: Access = 0, Miss = 0, Miss_rate = -nan, Pending_hits = 0, Reservation_fails = 0
	L1D_cache_core[1]: Access = 0, Miss = 0, Miss_rate = -nan, Pending_hits = 0, Reservation_fails = 0
	L1D_cache_core[2]: Access = 0, Miss = 0, Miss_rate = -nan, Pending_hits = 0, Reservation_fails = 0
	L1D_cache_core[3]: Access = 0, Miss = 0, Miss_rate = -nan, Pending_hits = 0, Reservation_fails = 0
	L1D_cache_core[4]: Access = 0, Miss = 0, Miss_rate = -nan, Pending_hits = 0, Reservation_fails = 0
	L1D_cache_core[5]: Access = 0, Miss = 0, Miss_rate = -nan, Pending_hits = 0, Reservation_fails = 0
	L1D_cache_core[6]: Access = 0, Miss = 0, Miss_rate = -nan, Pending_hits = 0, Reservation_fails = 0
	L1D_cache_core[7]: Access = 0, Miss = 0, Miss_rate = -nan, Pending_hits = 0, Reservation_fails = 0
	L1D_cache_core[8]: Access = 0, Miss = 0, Miss_rate = -nan, Pending_hits = 0, Reservation_fails = 0
	L1D_cache_core[9]: Access = 0, Miss = 0, Miss_rate = -nan, Pending_hits = 0, Reservation_fails = 0
	L1D_cache_core[10]: Access = 0, Miss = 0, Miss_rate = -nan, Pending_hits = 0, Reservation_fails = 0
	L1D_cache_core[11]: Access = 0, Miss = 0, Miss_rate = -nan, Pending_hits = 0, Reservation_fails = 0
	L1D_cache_core[12]: Access = 0, Miss = 0, Miss_rate = -nan, Pending_hits = 0, Reservation_fails = 0
	L1D_cache_core[13]: Access = 0, Miss = 0, Miss_rate = -nan, Pending_hits = 0, Reservation_fails = 0
	L1D_cache_core[14]: Access = 0, Miss = 0, Miss_rate = -nan, Pending_hits = 0, Reservation_fails = 0
	L1D_cache_core[15]: Access = 0, Miss = 0, Miss_rate = -nan, Pending_hits = 0, Reservation_fails = 0
	L1D_cache_core[16]: Access = 0, Miss = 0, Miss_rate = -nan, Pending_hits = 0, Reservation_fails = 0
	L1D_cache_core[17]: Access = 0, Miss = 0, Miss_rate = -nan, Pending_hits = 0, Reservation_fails = 0
	L1D_cache_core[18]: Access = 0, Miss = 0, Miss_rate = -nan, Pending_hits = 0, Reservation_fails = 0
	L1D_cache_core[19]: Access = 0, Miss = 0, Miss_rate = -nan, Pending_hits = 0, Reservation_fails = 0
	L1D_total_cache_accesses = 0
	L1D_total_cache_misses = 0
	L1D_total_cache_pending_hits = 0
	L1D_total_cache_reservation_fails = 0
	L1D_cache_data_port_util = 0.000
	L1D_cache_fill_port_util = 0.000
L1C_cache:
	L1C_total_cache_accesses = 0
	L1C_total_cache_misses = 0
	L1C_total_cache_pending_hits = 0
	L1C_total_cache_reservation_fails = 0
L1T_cache:
	L1T_total_cache_accesses = 0
	L1T_total_cache_misses = 0
	L1T_total_cache_pending_hits = 0
	L1T_total_cache_reservation_fails = 0

Total_core_cache_stats:
	Total_core_cache_stats_breakdown[GLOBAL_ACC_R][HIT] = 0
	Total_core_cache_stats_breakdown[GLOBAL_ACC_R][HIT_RESERVED] = 0
	Total_core_cache_stats_breakdown[GLOBAL_ACC_R][MISS] = 0
	Total_core_cache_stats_breakdown[GLOBAL_ACC_R][RESERVATION_FAIL] = 0
	Total_core_cache_stats_breakdown[GLOBAL_ACC_R][SECTOR_MISS] = 0
	Total_core_cache_stats_breakdown[GLOBAL_ACC_R][MSHR_HIT] = 0
	Total_core_cache_stats_breakdown[LOCAL_ACC_R][HIT] = 0
	Total_core_cache_stats_breakdown[LOCAL_ACC_R][HIT_RESERVED] = 0
	Total_core_cache_stats_breakdown[LOCAL_ACC_R][MISS] = 0
[...]

BW Util details:
bwutil = 0.003263 
total_CMD = 130542 
util_bw = 426 
Wasted_Col = 248 
Wasted_Row = 48 
Idle = 129820 

BW Util Bottlenecks: 
RCDc_limit = 30 
RCDWRc_limit = 23 
WTRc_limit = 241 
RTWc_limit = 139 
CCDLc_limit = 0 
rwq = 0 
CCDLc_limit_alone = 0 
WTRc_limit_alone = 241 
RTWc_limit_alone = 139 

Commands details: 
total_CMD = 130542 
n_nop = 130319 
Read = 8 
Write = 101 
L2_Alloc = 104 
L2_WB = 0 
n_act = 6 
n_pre = 4 
n_ref = 0 
n_req = 57 
total_req = 213 

Dual Bus Interface Util: 
issued_total_row = 10 
issued_total_col = 213 
Row_Bus_Util =  0.000077 
CoL_Bus_Util = 0.001632 
Either_Row_CoL_Bus_Util = 0.001708 
Issued_on_Two_Bus_Simul_Util = 0.000000 
issued_two_Eff = 0.000000 
queue_avg = 0.010533 


dram_util_bins: 0 0 0 0 0 0 0 0 0 0
dram_eff_bins: 0 0 0 0 0 0 0 0 0 0
mrqq: max=8 avg=0.010533
Memory Partition 2: 
Cache L2_bank_004:
MSHR contents

Cache L2_bank_005:
MSHR contents

In Dram Latency Queue (total = 0): 
DRAM[2]: 16 bks, busW=4 BL=8 CL=12, tRRD=6 tCCD=2, tRCD=12 tRAS=28 tRP=12 tRC=40
n_cmd=130542 n_nop=130311 n_act=6 n_pre=4 n_ref_event=0 n_req=65 n_rd=8 n_rd_L2_A=104 n_write=109 n_wr_bk=0 bw_util=0.003386
n_activity=935 dram_eff=0.4727
bk0: 56a 130061i bk1: 56a 129937i bk2: 0a 130538i bk3: 0a 130541i bk4: 0a 130541i bk5: 0a 130541i bk6: 0a 130541i bk7: 0a 130542i bk8: 0a 130542i bk9: 0a 130542i bk10: 0a 130542i bk11: 0a 130542i bk12: 0a 130542i bk13: 0a 130543i bk14: 0a 130543i bk15: 0a 130545i 

------------------------------------------------------------------------

Row_Buffer_Locality = 0.907692
Row_Buffer_Locality_read = 0.928571
Row_Buffer_Locality_write = 0.891892
Bank_Level_Parallism = 1.597222
Bank_Level_Parallism_Col = 1.643178
Bank_Level_Parallism_Ready = 1.306306
write_to_read_ratio_blp_rw_average = 0.386807
GrpLevelPara = 1.000000 

BW Util details:
bwutil = 0.003386 
total_CMD = 130542 
util_bw = 442 
Wasted_Col = 250 
Wasted_Row = 48 
Idle = 129802 

BW Util Bottlenecks: 
RCDc_limit = 30 
RCDWRc_limit = 22 
WTRc_limit = 242 
RTWc_limit = 120 
CCDLc_limit = 0 
rwq = 0 
CCDLc_limit_alone = 0 
WTRc_limit_alone = 242 
RTWc_limit_alone = 120 

Commands details: 
total_CMD = 130542 
n_nop = 130311 
Read = 8 
Write = 109 
L2_Alloc = 104 
L2_WB = 0 
n_act = 6 
n_pre = 4 
n_ref = 0 
n_req = 65 
total_req = 221 

Dual Bus Interface Util: 
issued_total_row = 10 
issued_total_col = 221 
Row_Bus_Util =  0.000077 
CoL_Bus_Util = 0.001693 
Either_Row_CoL_Bus_Util = 0.001770 
Issued_on_Two_Bus_Simul_Util = 0.000000 
issued_two_Eff = 0.000000 
queue_avg = 0.007247 


dram_util_bins: 0 0 0 0 0 0 0 0 0 0
dram_eff_bins: 0 0 0 0 0 0 0 0 0 0
mrqq: max=6 avg=0.00724671
Memory Partition 3: 
Cache L2_bank_006:
MSHR contents

Cache L2_bank_007:
MSHR contents

In Dram Latency Queue (total = 0): 
DRAM[3]: 16 bks, busW=4 BL=8 CL=12, tRRD=6 tCCD=2, tRCD=12 tRAS=28 tRP=12 tRC=40
n_cmd=130542 n_nop=130331 n_act=2 n_pre=0 n_ref_event=0 n_req=59 n_rd=0 n_rd_L2_A=104 n_write=105 n_wr_bk=0 bw_util=0.003202
n_activity=755 dram_eff=0.5536
bk0: 52a 130094i bk1: 52a 129976i bk2: 0a 130540i bk3: 0a 130542i bk4: 0a 130542i bk5: 0a 130542i bk6: 0a 130542i bk7: 0a 130542i bk8: 0a 130542i bk9: 0a 130542i bk10: 0a 130542i bk11: 0a 130542i bk12: 0a 130542i bk13: 0a 130542i bk14: 0a 130542i bk15: 0a 130543i 

------------------------------------------------------------------------

Row_Buffer_Locality = 0.966102
Row_Buffer_Locality_read = 1.000000
Row_Buffer_Locality_write = 0.939394
Bank_Level_Parallism = 1.741883
Bank_Level_Parallism_Col = 1.741463
Bank_Level_Parallism_Ready = 1.342857
write_to_read_ratio_blp_rw_average = 0.402439
GrpLevelPara = 1.000000 

BW Util details:
bwutil = 0.003202 
total_CMD = 130542 
util_bw = 418 
Wasted_Col = 213 
Wasted_Row = 0 
Idle = 129911 

BW Util Bottlenecks: 
RCDc_limit = 0 
RCDWRc_limit = 8 
WTRc_limit = 243 
RTWc_limit = 130 
CCDLc_limit = 0 
rwq = 0 
CCDLc_limit_alone = 0 
WTRc_limit_alone = 243 
RTWc_limit_alone = 130 

Commands details: 
total_CMD = 130542 
n_nop = 130331 
Read = 0 
Write = 105 
L2_Alloc = 104 
L2_WB = 0 
n_act = 2 
n_pre = 0 
n_ref = 0 
n_req = 59 
total_req = 209 

Dual Bus Interface Util: 
issued_total_row = 2 
issued_total_col = 209 
Row_Bus_Util =  0.000015 
CoL_Bus_Util = 0.001601 
Either_Row_CoL_Bus_Util = 0.001616 
Issued_on_Two_Bus_Simul_Util = 0.000000 
issued_two_Eff = 0.000000 
queue_avg = 0.007607 


dram_util_bins: 0 0 0 0 0 0 0 0 0 0
dram_eff_bins: 0 0 0 0 0 0 0 0 0 0
mrqq: max=6 avg=0.00760675
Memory Partition 4: 
Cache L2_bank_008:
MSHR contents

Cache L2_bank_009:
MSHR contents

In Dram Latency Queue (total = 0): 
DRAM[4]: 16 bks, busW=4 BL=8 CL=12, tRRD=6 tCCD=2, tRCD=12 tRAS=28 tRP=12 tRC=40
n_cmd=130542 n_nop=130332 n_act=2 n_pre=0 n_ref_event=0 n_req=58 n_rd=0 n_rd_L2_A=104 n_write=104 n_wr_bk=0 bw_util=0.003187
n_activity=742 dram_eff=0.5606
bk0: 52a 130093i bk1: 52a 129978i bk2: 0a 130540i bk3: 0a 130542i bk4: 0a 130542i bk5: 0a 130542i bk6: 0a 130542i bk7: 0a 130542i bk8: 0a 130542i bk9: 0a 130542i bk10: 0a 130542i bk11: 0a 130542i bk12: 0a 130542i bk13: 0a 130542i bk14: 0a 130542i bk15: 0a 130543i 

------------------------------------------------------------------------

Row_Buffer_Locality = 0.965517
Row_Buffer_Locality_read = 1.000000
Row_Buffer_Locality_write = 0.937500
Bank_Level_Parallism = 1.744300
Bank_Level_Parallism_Col = 1.743883
Bank_Level_Parallism_Ready = 1.346154
write_to_read_ratio_blp_rw_average = 0.402121
GrpLevelPara = 1.000000 

BW Util details:
bwutil = 0.003187 
total_CMD = 130542 
util_bw = 416 
Wasted_Col = 211 
Wasted_Row = 0 
Idle = 129915 

BW Util Bottlenecks: 
RCDc_limit = 0 
RCDWRc_limit = 9 
WTRc_limit = 242 
RTWc_limit = 130 
CCDLc_limit = 0 
rwq = 0 
CCDLc_limit_alone = 0 
WTRc_limit_alone = 242 
RTWc_limit_alone = 130 

Commands details: 
total_CMD = 130542 
n_nop = 130332 
Read = 0 
Write = 104 
L2_Alloc = 104 
L2_WB = 0 
n_act = 2 
n_pre = 0 
n_ref = 0 
n_req = 58 
total_req = 208 

Dual Bus Interface Util: 
issued_total_row = 2 
issued_total_col = 208 
Row_Bus_Util =  0.000015 
CoL_Bus_Util = 0.001593 
Either_Row_CoL_Bus_Util = 0.001609 
Issued_on_Two_Bus_Simul_Util = 0.000000 
issued_two_Eff = 0.000000 
queue_avg = 0.007622 


dram_util_bins: 0 0 0 0 0 0 0 0 0 0
dram_eff_bins: 0 0 0 0 0 0 0 0 0 0
mrqq: max=6 avg=0.00762207
Memory Partition 5: 
Cache L2_bank_010:
MSHR contents

Cache L2_bank_011:
MSHR contents

In Dram Latency Queue (total = 0): 
DRAM[5]: 16 bks, busW=4 BL=8 CL=12, tRRD=6 tCCD=2, tRCD=12 tRAS=28 tRP=12 tRC=40
n_cmd=130542 n_nop=130330 n_act=2 n_pre=0 n_ref_event=0 n_req=60 n_rd=0 n_rd_L2_A=104 n_write=106 n_wr_bk=0 bw_util=0.003217
n_activity=766 dram_eff=0.5483
bk0: 52a 130066i bk1: 52a 129980i bk2: 0a 130540i bk3: 0a 130542i bk4: 0a 130542i bk5: 0a 130542i bk6: 0a 130542i bk7: 0a 130542i bk8: 0a 130542i bk9: 0a 130542i bk10: 0a 130542i bk11: 0a 130542i bk12: 0a 130542i bk13: 0a 130542i bk14: 0a 130542i bk15: 0a 130543i 

------------------------------------------------------------------------

Row_Buffer_Locality = 0.966667
Row_Buffer_Locality_read = 1.000000
Row_Buffer_Locality_write = 0.941176
Bank_Level_Parallism = 1.788274
Bank_Level_Parallism_Col = 1.787928
Bank_Level_Parallism_Ready = 1.360190
write_to_read_ratio_blp_rw_average = 0.411093
GrpLevelPara = 1.000000 

BW Util details:
bwutil = 0.003217 
total_CMD = 130542 
util_bw = 420 
Wasted_Col = 210 
Wasted_Row = 0 
Idle = 129912 

BW Util Bottlenecks: 
RCDc_limit = 0 
RCDWRc_limit = 8 
WTRc_limit = 240 
RTWc_limit = 140 
CCDLc_limit = 0 
rwq = 0 
CCDLc_limit_alone = 0 
WTRc_limit_alone = 240 
RTWc_limit_alone = 140 

Commands details: 
total_CMD = 130542 
n_nop = 130330 
Read = 0 
Write = 106 
L2_Alloc = 104 
L2_WB = 0 
n_act = 2 
n_pre = 0 
n_ref = 0 
n_req = 60 
total_req = 210 

Dual Bus Interface Util: 
issued_total_row = 2 
issued_total_col = 210 
Row_Bus_Util =  0.000015 
CoL_Bus_Util = 0.001609 
Either_Row_CoL_Bus_Util = 0.001624 
Issued_on_Two_Bus_Simul_Util = 0.000000 
issued_two_Eff = 0.000000 
queue_avg = 0.009124 


dram_util_bins: 0 0 0 0 0 0 0 0 0 0
dram_eff_bins: 0 0 0 0 0 0 0 0 0 0
mrqq: max=6 avg=0.0091235
Memory Partition 6: 
Cache L2_bank_012:
MSHR contents

Cache L2_bank_013:
MSHR contents

In Dram Latency Queue (total = 0): 
DRAM[6]: 16 bks, busW=4 BL=8 CL=12, tRRD=6 tCCD=2, tRCD=12 tRAS=28 tRP=12 tRC=40
n_cmd=130542 n_nop=130334 n_act=2 n_pre=0 n_ref_event=0 n_req=56 n_rd=0 n_rd_L2_A=104 n_write=102 n_wr_bk=0 bw_util=0.003156
n_activity=718 dram_eff=0.5738
bk0: 52a 130057i bk1: 52a 129980i bk2: 0a 130540i bk3: 0a 130542i bk4: 0a 130542i bk5: 0a 130542i bk6: 0a 130542i bk7: 0a 130542i bk8: 0a 130542i bk9: 0a 130542i bk10: 0a 130542i bk11: 0a 130542i bk12: 0a 130542i bk13: 0a 130542i bk14: 0a 130542i bk15: 0a 130543i 

------------------------------------------------------------------------

Row_Buffer_Locality = 0.964286
Row_Buffer_Locality_read = 1.000000
Row_Buffer_Locality_write = 0.933333
Bank_Level_Parallism = 1.781906
Bank_Level_Parallism_Col = 1.781553
Bank_Level_Parallism_Ready = 1.367150
write_to_read_ratio_blp_rw_average = 0.417476
GrpLevelPara = 1.000000 

BW Util details:
bwutil = 0.003156 
total_CMD = 130542 
util_bw = 412 
Wasted_Col = 218 
Wasted_Row = 0 
Idle = 129912 

BW Util Bottlenecks: 
RCDc_limit = 0 
RCDWRc_limit = 8 
WTRc_limit = 239 
RTWc_limit = 149 
CCDLc_limit = 0 
rwq = 0 
CCDLc_limit_alone = 0 
WTRc_limit_alone = 239 
RTWc_limit_alone = 149 

Commands details: 
total_CMD = 130542 
n_nop = 130334 
Read = 0 
Write = 102 
L2_Alloc = 104 
L2_WB = 0 
n_act = 2 
n_pre = 0 
n_ref = 0 
n_req = 56 
total_req = 206 

Dual Bus Interface Util: 
issued_total_row = 2 
issued_total_col = 206 
Row_Bus_Util =  0.000015 
CoL_Bus_Util = 0.001578 
Either_Row_CoL_Bus_Util = 0.001593 
Issued_on_Two_Bus_Simul_Util = 0.000000 
issued_two_Eff = 0.000000 
queue_avg = 0.009154 


dram_util_bins: 0 0 0 0 0 0 0 0 0 0
dram_eff_bins: 0 0 0 0 0 0 0 0 0 0
mrqq: max=6 avg=0.00915414
Memory Partition 7: 
Cache L2_bank_014:
MSHR contents

Cache L2_bank_015:
MSHR contents

In Dram Latency Queue (total = 0): 
DRAM[7]: 16 bks, busW=4 BL=8 CL=12, tRRD=6 tCCD=2, tRCD=12 tRAS=28 tRP=12 tRC=40
n_cmd=130542 n_nop=130327 n_act=2 n_pre=0 n_ref_event=0 n_req=63 n_rd=0 n_rd_L2_A=104 n_write=109 n_wr_bk=0 bw_util=0.003263
n_activity=775 dram_eff=0.5497
bk0: 52a 130093i bk1: 52a 129989i bk2: 0a 130540i bk3: 0a 130542i bk4: 0a 130542i bk5: 0a 130542i bk6: 0a 130542i bk7: 0a 130542i bk8: 0a 130542i bk9: 0a 130542i bk10: 0a 130542i bk11: 0a 130542i bk12: 0a 130542i bk13: 0a 130542i bk14: 0a 130542i bk15: 0a 130543i 

------------------------------------------------------------------------

Row_Buffer_Locality = 0.968254
Row_Buffer_Locality_read = 1.000000
Row_Buffer_Locality_write = 0.945946
Bank_Level_Parallism = 1.751645
Bank_Level_Parallism_Col = 1.751236
Bank_Level_Parallism_Ready = 1.336449
write_to_read_ratio_blp_rw_average = 0.394563
GrpLevelPara = 1.000000 

BW Util details:
bwutil = 0.003263 
total_CMD = 130542 
util_bw = 426 
Wasted_Col = 202 
Wasted_Row = 0 
Idle = 129914 

BW Util Bottlenecks: 
RCDc_limit = 0 
RCDWRc_limit = 8 
WTRc_limit = 242 
RTWc_limit = 120 
CCDLc_limit = 0 
rwq = 0 
CCDLc_limit_alone = 0 
WTRc_limit_alone = 242 
RTWc_limit_alone = 120 

Commands details: 
total_CMD = 130542 
n_nop = 130327 
Read = 0 
Write = 109 
L2_Alloc = 104 
L2_WB = 0 
n_act = 2 
n_pre = 0 
n_ref = 0 
n_req = 63 
total_req = 213 

Dual Bus Interface Util: 
issued_total_row = 2 
issued_total_col = 213 
Row_Bus_Util =  0.000015 
CoL_Bus_Util = 0.001632 
Either_Row_CoL_Bus_Util = 0.001647 
Issued_on_Two_Bus_Simul_Util = 0.000000 
issued_two_Eff = 0.000000 
queue_avg = 0.007408 


dram_util_bins: 0 0 0 0 0 0 0 0 0 0
dram_eff_bins: 0 0 0 0 0 0 0 0 0 0
mrqq: max=6 avg=0.00740758

========= L2 cache stats =========
L2_cache_bank[0]: Access = 160, Miss = 14, Miss_rate = 0.087, Pending_hits = 4, Reservation_fails = 0
L2_cache_bank[1]: Access = 150, Miss = 14, Miss_rate = 0.093, Pending_hits = 1, Reservation_fails = 0
L2_cache_bank[2]: Access = 160, Miss = 14, Miss_rate = 0.087, Pending_hits = 6, Reservation_fails = 0
L2_cache_bank[3]: Access = 160, Miss = 14, Miss_rate = 0.087, Pending_hits = 20, Reservation_fails = 0
L2_cache_bank[4]: Access = 160, Miss = 14, Miss_rate = 0.087, Pending_hits = 12, Reservation_fails = 0
L2_cache_bank[5]: Access = 160, Miss = 14, Miss_rate = 0.087, Pending_hits = 11, Reservation_fails = 0
L2_cache_bank[6]: Access = 140, Miss = 13, Miss_rate = 0.093, Pending_hits = 2, Reservation_fails = 0
L2_cache_bank[7]: Access = 140, Miss = 13, Miss_rate = 0.093, Pending_hits = 5, Reservation_fails = 0
L2_cache_bank[8]: Access = 140, Miss = 13, Miss_rate = 0.093, Pending_hits = 2, Reservation_fails = 0
L2_cache_bank[9]: Access = 140, Miss = 13, Miss_rate = 0.093, Pending_hits = 4, Reservation_fails = 0
L2_cache_bank[10]: Access = 140, Miss = 13, Miss_rate = 0.093, Pending_hits = 6, Reservation_fails = 0
L2_cache_bank[11]: Access = 140, Miss = 13, Miss_rate = 0.093, Pending_hits = 2, Reservation_fails = 0
L2_cache_bank[12]: Access = 140, Miss = 13, Miss_rate = 0.093, Pending_hits = 4, Reservation_fails = 0
L2_cache_bank[13]: Access = 140, Miss = 13, Miss_rate = 0.093, Pending_hits = 0, Reservation_fails = 0
L2_cache_bank[14]: Access = 140, Miss = 13, Miss_rate = 0.093, Pending_hits = 1, Reservation_fails = 0
L2_cache_bank[15]: Access = 140, Miss = 13, Miss_rate = 0.093, Pending_hits = 10, Reservation_fails = 0
L2_total_cache_accesses = 2350
L2_total_cache_misses = 214
L2_total_cache_miss_rate = 0.0911
L2_total_cache_pending_hits = 90
L2_total_cache_reservation_fails = 0
L2_total_cache_breakdown:
	L2_cache_stats_breakdown[GLOBAL_ACC_R][HIT] = 1024
	L2_cache_stats_breakdown[GLOBAL_ACC_R][HIT_RESERVED] = 0
	L2_cache_stats_breakdown[GLOBAL_ACC_R][MISS] = 0
	L2_cache_stats_breakdown[GLOBAL_ACC_R][RESERVATION_FAIL] = 0
	L2_cache_stats_breakdown[GLOBAL_ACC_R][SECTOR_MISS] = 0
	L2_cache_stats_breakdown[GLOBAL_ACC_R][MSHR_HIT] = 0
	L2_cache_stats_breakdown[LOCAL_ACC_R][HIT] = 0
	L2_cache_stats_breakdown[LOCAL_ACC_R][HIT_RESERVED] = 0
	L2_cache_stats_breakdown[LOCAL_ACC_R][MISS] = 0
	L2_cache_stats_breakdown[LOCAL_ACC_R][RESERVATION_FAIL] = 0
	L2_cache_stats_breakdown[LOCAL_ACC_R][SECTOR_MISS] = 0
	L2_cache_stats_breakdown[LOCAL_ACC_R][MSHR_HIT] = 0
	L2_cache_stats_breakdown[CONST_ACC_R][HIT] = 0
	L2_cache_stats_breakdown[CONST_ACC_R][HIT_RESERVED] = 0
	L2_cache_stats_breakdown[CONST_ACC_R][MISS] = 0
	L2_cache_stats_breakdown[CONST_ACC_R][RESERVATION_FAIL] = 0
	L2_cache_stats_breakdown[CONST_ACC_R][SECTOR_MISS] = 0
	L2_cache_stats_breakdown[CONST_ACC_R][MSHR_HIT] = 0
	L2_cache_stats_breakdown[TEXTURE_ACC_R][HIT] = 0
	L2_cache_stats_breakdown[TEXTURE_ACC_R][HIT_RESERVED] = 0
	L2_cache_stats_breakdown[TEXTURE_ACC_R][MISS] = 0
	L2_cache_stats_breakdown[TEXTURE_ACC_R][RESERVATION_FAIL] = 0
	L2_cache_stats_breakdown[TEXTURE_ACC_R][SECTOR_MISS] = 0
	L2_cache_stats_breakdown[TEXTURE_ACC_R][MSHR_HIT] = 0
	L2_cache_stats_breakdown[GLOBAL_ACC_W][HIT] = 953
	L2_cache_stats_breakdown[GLOBAL_ACC_W][HIT_RESERVED] = 55
	L2_cache_stats_breakdown[GLOBAL_ACC_W][MISS] = 208
	L2_cache_stats_breakdown[GLOBAL_ACC_W][RESERVATION_FAIL] = 0
	L2_cache_stats_breakdown[GLOBAL_ACC_W][SECTOR_MISS] = 0
	L2_cache_stats_breakdown[GLOBAL_ACC_W][MSHR_HIT] = 0
	L2_cache_stats_breakdown[LOCAL_ACC_W][HIT] = 0
	L2_cache_stats_breakdown[LOCAL_ACC_W][HIT_RESERVED] = 0
	L2_cache_stats_breakdown[LOCAL_ACC_W][MISS] = 0
	L2_cache_stats_breakdown[LOCAL_ACC_W][RESERVATION_FAIL] = 0
	L2_cache_stats_breakdown[LOCAL_ACC_W][SECTOR_MISS] = 0
	L2_cache_stats_breakdown[LOCAL_ACC_W][MSHR_HIT] = 0
	L2_cache_stats_breakdown[L1_WRBK_ACC][HIT] = 0
	L2_cache_stats_breakdown[L1_WRBK_ACC][HIT_RESERVED] = 0
	L2_cache_stats_breakdown[L1_WRBK_ACC][MISS] = 0
	L2_cache_stats_breakdown[L1_WRBK_ACC][RESERVATION_FAIL] = 0
	L2_cache_stats_breakdown[L1_WRBK_ACC][SECTOR_MISS] = 0
	L2_cache_stats_breakdown[L1_WRBK_ACC][MSHR_HIT] = 0
	L2_cache_stats_breakdown[L2_WRBK_ACC][HIT] = 0
	L2_cache_stats_breakdown[L2_WRBK_ACC][HIT_RESERVED] = 0
	L2_cache_stats_breakdown[L2_WRBK_ACC][MISS] = 0
	L2_cache_stats_breakdown[L2_WRBK_ACC][RESERVATION_FAIL] = 0
	L2_cache_stats_breakdown[L2_WRBK_ACC][SECTOR_MISS] = 0
	L2_cache_stats_breakdown[L2_WRBK_ACC][MSHR_HIT] = 0
	L2_cache_stats_breakdown[INST_ACC_R][HIT] = 69
	L2_cache_stats_breakdown[INST_ACC_R][HIT_RESERVED] = 35
	L2_cache_stats_breakdown[INST_ACC_R][MISS] = 6
	L2_cache_stats_breakdown[INST_ACC_R][RESERVATION_FAIL] = 0
	L2_cache_stats_breakdown[INST_ACC_R][SECTOR_MISS] = 0
	L2_cache_stats_breakdown[INST_ACC_R][MSHR_HIT] = 35
	L2_cache_stats_breakdown[L1_WR_ALLOC_R][HIT] = 0
	L2_cache_stats_breakdown[L1_WR_ALLOC_R][HIT_RESERVED] = 0
	L2_cache_stats_breakdown[L1_WR_ALLOC_R][MISS] = 0
	L2_cache_stats_breakdown[L1_WR_ALLOC_R][RESERVATION_FAIL] = 0
	L2_cache_stats_breakdown[L1_WR_ALLOC_R][SECTOR_MISS] = 0
	L2_cache_stats_breakdown[L1_WR_ALLOC_R][MSHR_HIT] = 0
	L2_cache_stats_breakdown[L2_WR_ALLOC_R][HIT] = 0
	L2_cache_stats_breakdown[L2_WR_ALLOC_R][HIT_RESERVED] = 0
	L2_cache_stats_breakdown[L2_WR_ALLOC_R][MISS] = 0
	L2_cache_stats_breakdown[L2_WR_ALLOC_R][RESERVATION_FAIL] = 0
	L2_cache_stats_breakdown[L2_WR_ALLOC_R][SECTOR_MISS] = 0
	L2_cache_stats_breakdown[L2_WR_ALLOC_R][MSHR_HIT] = 55
	L2_cache_stats_breakdown[GLOBAL_ACC_R][TOTAL_ACCESS] = 1024
	L2_cache_stats_breakdown[GLOBAL_ACC_W][TOTAL_ACCESS] = 1216
	L2_cache_stats_breakdown[INST_ACC_R][TOTAL_ACCESS] = 110
L2_total_cache_reservation_fail_breakdown:
L2_cache_data_port_util = 0.005
L2_cache_fill_port_util = 0.001

icnt_total_pkts_mem_to_simt=6886
icnt_total_pkts_simt_to_mem=5678
LD_mem_lat_dist  0 0 0 0 0 0 0 0 0 0 0 0 0 0 0 0 0 0 0 0 0 0 0 0 0 0 0
ST_mem_lat_dist  0 0 0 0 0 0 0 0 0 0 0 0 0 0 0 0 0 0 0 0 0 0 0 0 0 0 0
----------------------------Interconnect-DETAILS--------------------------------
Class 0:
Packet latency average = 55.8443
	minimum = 6
	maximum = 290
Network latency average = 45.5836
	minimum = 6
	maximum = 195
Slowest packet = 486
Flit latency average = 56.0837
	minimum = 6
	maximum = 191
Slowest flit = 1390
Fragmentation average = 0
	minimum = 0
	maximum = 0
Injected packet rate average = 0.00112021
	minimum = 0 (at node 36)
	maximum = 0.00342021 (at node 5)
Accepted packet rate average = 0.00112021
	minimum = 0 (at node 36)
	maximum = 0.00342021 (at node 5)
Injected flit rate average = 0.00299453
	minimum = 0 (at node 36)
	maximum = 0.0121316 (at node 0)
Accepted flit rate average= 0.00299453
	minimum = 0 (at node 36)
	maximum = 0.0128586 (at node 5)
Injected packet length average = 2.67319
Accepted packet length average = 2.67319
Total in-flight flits = 0 (0 measured)
====== Overall Traffic Statistics ======
====== Traffic class 0 ======
Packet latency average = 46.7301 (11 samples)
	minimum = 6 (11 samples)
	maximum = 265.455 (11 samples)
Network latency average = 38.2904 (11 samples)
	minimum = 6 (11 samples)
	maximum = 178.636 (11 samples)
Flit latency average = 44.6972 (11 samples)
	minimum = 6 (11 samples)
	maximum = 174.636 (11 samples)
Fragmentation average = 0 (11 samples)
	minimum = 0 (11 samples)
	maximum = 0 (11 samples)
Injected packet rate average = 0.00257888 (11 samples)
	minimum = 0 (11 samples)
	maximum = 0.0252422 (11 samples)
Accepted packet rate average = 0.00257888 (11 samples)
	minimum = 0 (11 samples)
	maximum = 0.0252422 (11 samples)
Injected flit rate average = 0.00755135 (11 samples)
	minimum = 0 (11 samples)
	maximum = 0.121748 (11 samples)
Accepted flit rate average = 0.00755135 (11 samples)
	minimum = 0 (11 samples)
	maximum = 0.0574888 (11 samples)
Injected packet size average = 2.92815 (11 samples)
Accepted packet size average = 2.92815 (11 samples)
Hops average = 1 (11 samples)
----------------------------END-of-Interconnect-DETAILS-------------------------


gpgpu_simulation_time = 0 days, 0 hrs, 0 min, 47 sec (47 sec)
gpgpu_simulation_rate = 1264934 (inst/sec)
gpgpu_simulation_rate = 1785 (cycle/sec)
gpgpu_silicon_slowdown = 900280x
GPGPU-Sim: *** simulation thread exiting ***
GPGPU-Sim: *** exit detected ***
