GPGPU-Sim version 4.2.0 (build gpgpu-sim_git-commit-13c67115070dc2f0876254a790d0238073ca364a-modified_590.0) configured with AccelWattch.

----------------------------------------------------------------------------
INFO - If you only care about PTX execution, ignore this message. GPGPU-Sim supports PTX execution in modern CUDA.
If you want to run PTXPLUS (sm_1x SASS) with a modern card configuration - set the envronment variable
$PTXAS_CUDA_INSTALL_PATH to point a CUDA version compabible with your card configurations (i.e. 8+ for PASCAL, 9+ for VOLTA etc..)
For example: "export $PTXAS_CUDA_INSTALL_PATH=/usr/local/cuda-9.1"

The following text describes why:
If you are using PTXPLUS, only sm_1x is supported and it requires that the app and simulator binaries are compiled in CUDA 4.2 or less.
The simulator requires it since CUDA headers desribe struct sizes in the exec which change from gen to gen.
The apps require 4.2 because new versions of CUDA tools have dropped parsing support for generating sm_1x
When running using modern config (i.e. volta) and PTXPLUS with CUDA 4.2, the $PTXAS_CUDA_INSTALL_PATH env variable is required to get proper register usage
(and hence occupancy) using a version of CUDA that knows the register usage on the real card.

----------------------------------------------------------------------------
setup_environment succeeded


        *** GPGPU-Sim Simulator Version 4.2.0  [build gpgpu-sim_git-commit-13c67115070dc2f0876254a790d0238073ca364a_modified_0.0] ***


GPGPU-Sim PTX: simulation mode 0 (can change with PTX_SIM_MODE_FUNC environment variable:
               1=functional simulation only, 0=detailed performance simulator)
GPGPU-Sim PTX: overriding embedded ptx with ptx file (PTX_SIM_USE_PTX_FILE is set)
GPGPU-Sim: Configuration options:

-save_embedded_ptx                      0 # saves ptx files embedded in binary as <n>.ptx
-keep                                   0 # keep intermediate files created by GPGPU-Sim when interfacing with external programs
-gpgpu_ptx_save_converted_ptxplus                    0 # Saved converted ptxplus to a file
-gpgpu_occupancy_sm_number                   60 # The SM number to pass to ptxas when getting register usage for computing GPU occupancy. This parameter is required in the config.
-ptx_opcode_latency_int         4,13,4,5,145 # Opcode latencies for integers <ADD,MAX,MUL,MAD,DIV,SHFL>Default 1,1,19,25,145,32
-ptx_opcode_latency_fp          4,13,4,5,39 # Opcode latencies for single precision floating points <ADD,MAX,MUL,MAD,DIV>Default 1,1,1,1,30
-ptx_opcode_latency_dp         8,19,8,8,330 # Opcode latencies for double precision floating points <ADD,MAX,MUL,MAD,DIV>Default 8,8,8,8,335
-ptx_opcode_latency_sfu                    8 # Opcode latencies for SFU instructionsDefault 8
-ptx_opcode_latency_tesnor                   64 # Opcode latencies for Tensor instructionsDefault 64
-ptx_opcode_initiation_int            1,2,2,2,8 # Opcode initiation intervals for integers <ADD,MAX,MUL,MAD,DIV,SHFL>Default 1,1,4,4,32,4
-ptx_opcode_initiation_fp            1,2,1,1,4 # Opcode initiation intervals for single precision floating points <ADD,MAX,MUL,MAD,DIV>Default 1,1,1,1,5
-ptx_opcode_initiation_dp          1,2,1,1,130 # Opcode initiation intervals for double precision floating points <ADD,MAX,MUL,MAD,DIV>Default 8,8,8,8,130
-ptx_opcode_initiation_sfu                    8 # Opcode initiation intervals for sfu instructionsDefault 8
-ptx_opcode_initiation_tensor                   64 # Opcode initiation intervals for tensor instructionsDefault 64
-cdp_latency         7200,8000,100,12000,1600 # CDP API latency <cudaStreamCreateWithFlags, cudaGetParameterBufferV2_init_perWarp, cudaGetParameterBufferV2_perKernel, cudaLaunchDeviceV2_init_perWarp, cudaLaunchDevicV2_perKernel>Default 7200,8000,100,12000,1600
-network_mode                           1 # Interconnection network mode
-inter_config_file   config_fermi_islip.icnt # Interconnection network config file
-icnt_in_buffer_limit                   64 # in_buffer_limit
-icnt_out_buffer_limit                   64 # out_buffer_limit
-icnt_subnets                           2 # subnets
-icnt_arbiter_algo                      1 # arbiter_algo
-icnt_verbose                           0 # inct_verbose
-icnt_grant_cycles                      1 # grant_cycles
-gpgpu_ptx_use_cuobjdump                    1 # Use cuobjdump to extract ptx and sass from binaries
-gpgpu_experimental_lib_support                    0 # Try to extract code from cuda libraries [Broken because of unknown cudaGetExportTable]
-checkpoint_option                      0 #  checkpointing flag (0 = no checkpoint)
-checkpoint_kernel                      1 #  checkpointing during execution of which kernel (1- 1st kernel)
-checkpoint_CTA                         0 #  checkpointing after # of CTA (< less than total CTA)
-resume_option                          0 #  resume flag (0 = no resume)
-resume_kernel                          0 #  Resume from which kernel (1= 1st kernel)
-resume_CTA                             0 #  resume from which CTA 
-checkpoint_CTA_t                       0 #  resume from which CTA 
-checkpoint_insn_Y                      0 #  resume from which CTA 
-gpgpu_ptx_convert_to_ptxplus                    0 # Convert SASS (native ISA) to ptxplus and run ptxplus
-gpgpu_ptx_force_max_capability                   60 # Force maximum compute capability
-gpgpu_ptx_inst_debug_to_file                    0 # Dump executed instructions' debug information to file
-gpgpu_ptx_inst_debug_file       inst_debug.txt # Executed instructions' debug output file
-gpgpu_ptx_inst_debug_thread_uid                    1 # Thread UID for executed instructions' debug output
-gpgpu_simd_model                       1 # 1 = post-dominator
-gpgpu_shader_core_pipeline              2048:32 # shader core pipeline config, i.e., {<nthread>:<warpsize>}
-gpgpu_tex_cache:l1  N:16:128:24,L:R:m:N:L,F:128:4,128:2 # per-shader L1 texture cache  (READ-ONLY) config  {<nsets>:<bsize>:<assoc>,<rep>:<wr>:<alloc>:<wr_alloc>,<mshr>:<N>:<merge>,<mq>:<rf>}
-gpgpu_const_cache:l1 N:128:64:2,L:R:f:N:L,A:2:64,4 # per-shader L1 constant memory cache  (READ-ONLY) config  {<nsets>:<bsize>:<assoc>,<rep>:<wr>:<alloc>:<wr_alloc>,<mshr>:<N>:<merge>,<mq>} 
-gpgpu_cache:il1     N:8:128:4,L:R:f:N:L,A:2:48,4 # shader L1 instruction cache config  {<nsets>:<bsize>:<assoc>,<rep>:<wr>:<alloc>:<wr_alloc>,<mshr>:<N>:<merge>,<mq>} 
-gpgpu_cache:dl1     N:64:128:6,L:L:m:N:H,A:128:8,8 # per-shader L1 data cache config  {<nsets>:<bsize>:<assoc>,<rep>:<wr>:<alloc>:<wr_alloc>,<mshr>:<N>:<merge>,<mq> | none}
-gpgpu_l1_cache_write_ratio                    0 # L1D write ratio
-gpgpu_l1_banks                         1 # The number of L1 cache banks
-gpgpu_l1_banks_byte_interleaving                   32 # l1 banks byte interleaving granularity
-gpgpu_l1_banks_hashing_function                    0 # l1 banks hashing function
-gpgpu_l1_latency                       1 # L1 Hit Latency
-gpgpu_smem_latency                     3 # smem Latency
-gpgpu_cache:dl1PrefL1                 none # per-shader L1 data cache config  {<nsets>:<bsize>:<assoc>,<rep>:<wr>:<alloc>:<wr_alloc>,<mshr>:<N>:<merge>,<mq> | none}
-gpgpu_cache:dl1PrefShared                 none # per-shader L1 data cache config  {<nsets>:<bsize>:<assoc>,<rep>:<wr>:<alloc>:<wr_alloc>,<mshr>:<N>:<merge>,<mq> | none}
-gpgpu_gmem_skip_L1D                    1 # global memory access skip L1D cache (implements -Xptxas -dlcm=cg, default=no skip)
-gpgpu_perfect_mem                      0 # enable perfect memory mode (no cache miss)
-n_regfile_gating_group                    4 # group of lanes that should be read/written together)
-gpgpu_clock_gated_reg_file                    0 # enable clock gated reg file for power calculations
-gpgpu_clock_gated_lanes                    0 # enable clock gated lanes for power calculations
-gpgpu_shader_registers                65536 # Number of registers per shader core. Limits number of concurrent CTAs. (default 8192)
-gpgpu_registers_per_block                 8192 # Maximum number of registers per CTA. (default 8192)
-gpgpu_ignore_resources_limitation                    0 # gpgpu_ignore_resources_limitation (default 0)
-gpgpu_shader_cta                      32 # Maximum number of concurrent CTAs in shader (default 32)
-gpgpu_num_cta_barriers                   16 # Maximum number of named barriers per CTA (default 16)
-gpgpu_n_clusters                      20 # number of processing clusters
-gpgpu_n_cores_per_cluster                    1 # number of simd cores per cluster
-gpgpu_n_cluster_ejection_buffer_size                    8 # number of packets in ejection buffer
-gpgpu_n_ldst_response_buffer_size                    2 # number of response packets in ld/st unit ejection buffer
-gpgpu_shmem_per_block                49152 # Size of shared memory per thread block or CTA (default 48kB)
-gpgpu_shmem_size                   98304 # Size of shared memory per shader core (default 16kB)
-gpgpu_shmem_option                     0 # Option list of shared memory sizes
-gpgpu_unified_l1d_size                    0 # Size of unified data cache(L1D + shared memory) in KB
-gpgpu_adaptive_cache_config                    0 # adaptive_cache_config
-gpgpu_shmem_sizeDefault                16384 # Size of shared memory per shader core (default 16kB)
-gpgpu_shmem_size_PrefL1                16384 # Size of shared memory per shader core (default 16kB)
-gpgpu_shmem_size_PrefShared                16384 # Size of shared memory per shader core (default 16kB)
-gpgpu_shmem_num_banks                   32 # Number of banks in the shared memory in each shader core (default 16)
-gpgpu_shmem_limited_broadcast                    0 # Limit shared memory to do one broadcast per cycle (default on)
-gpgpu_shmem_warp_parts                    1 # Number of portions a warp is divided into for shared memory bank conflict check 
-gpgpu_mem_unit_ports                    1 # The number of memory transactions allowed per core cycle
-gpgpu_shmem_warp_parts                    1 # Number of portions a warp is divided into for shared memory bank conflict check 
-gpgpu_warpdistro_shader                   -1 # Specify which shader core to collect the warp size distribution from
-gpgpu_warp_issue_shader                    0 # Specify which shader core to collect the warp issue distribution from
-gpgpu_local_mem_map                    1 # Mapping from local memory space address to simulated GPU physical address space (default = enabled)
-gpgpu_num_reg_banks                   32 # Number of register banks (default = 8)
-gpgpu_reg_bank_use_warp_id                    0 # Use warp ID in mapping registers to banks (default = off)
-gpgpu_sub_core_model                    0 # Sub Core Volta/Pascal model (default = off)
-gpgpu_enable_specialized_operand_collector                    1 # enable_specialized_operand_collector
-gpgpu_operand_collector_num_units_sp                   20 # number of collector units (default = 4)
-gpgpu_operand_collector_num_units_dp                    0 # number of collector units (default = 0)
-gpgpu_operand_collector_num_units_sfu                    4 # number of collector units (default = 4)
-gpgpu_operand_collector_num_units_int                    0 # number of collector units (default = 0)
-gpgpu_operand_collector_num_units_tensor_core                    4 # number of collector units (default = 4)
-gpgpu_operand_collector_num_units_mem                    8 # number of collector units (default = 2)
-gpgpu_operand_collector_num_units_gen                    0 # number of collector units (default = 0)
-gpgpu_operand_collector_num_in_ports_sp                    4 # number of collector unit in ports (default = 1)
-gpgpu_operand_collector_num_in_ports_dp                    0 # number of collector unit in ports (default = 0)
-gpgpu_operand_collector_num_in_ports_sfu                    1 # number of collector unit in ports (default = 1)
-gpgpu_operand_collector_num_in_ports_int                    0 # number of collector unit in ports (default = 0)
-gpgpu_operand_collector_num_in_ports_tensor_core                    1 # number of collector unit in ports (default = 1)
-gpgpu_operand_collector_num_in_ports_mem                    1 # number of collector unit in ports (default = 1)
-gpgpu_operand_collector_num_in_ports_gen                    0 # number of collector unit in ports (default = 0)
-gpgpu_operand_collector_num_out_ports_sp                    4 # number of collector unit in ports (default = 1)
-gpgpu_operand_collector_num_out_ports_dp                    0 # number of collector unit in ports (default = 0)
-gpgpu_operand_collector_num_out_ports_sfu                    1 # number of collector unit in ports (default = 1)
-gpgpu_operand_collector_num_out_ports_int                    0 # number of collector unit in ports (default = 0)
-gpgpu_operand_collector_num_out_ports_tensor_core                    1 # number of collector unit in ports (default = 1)
-gpgpu_operand_collector_num_out_ports_mem                    1 # number of collector unit in ports (default = 1)
-gpgpu_operand_collector_num_out_ports_gen                    0 # number of collector unit in ports (default = 0)
-gpgpu_coalesce_arch                   13 # Coalescing arch (GT200 = 13, Fermi = 20)
-gpgpu_num_sched_per_core                    2 # Number of warp schedulers per core
-gpgpu_max_insn_issue_per_warp                    2 # Max number of instructions that can be issued per warp in one cycle by scheduler (either 1 or 2)
-gpgpu_dual_issue_diff_exec_units                    1 # should dual issue use two different execution unit resources (Default = 1)
-gpgpu_simt_core_sim_order                    1 # Select the simulation order of cores in a cluster (0=Fix, 1=Round-Robin)
-gpgpu_pipeline_widths 4,0,0,1,1,4,0,0,1,1,6 # Pipeline widths ID_OC_SP,ID_OC_DP,ID_OC_INT,ID_OC_SFU,ID_OC_MEM,OC_EX_SP,OC_EX_DP,OC_EX_INT,OC_EX_SFU,OC_EX_MEM,EX_WB,ID_OC_TENSOR_CORE,OC_EX_TENSOR_CORE
-gpgpu_tensor_core_avail                    0 # Tensor Core Available (default=0)
-gpgpu_num_sp_units                     4 # Number of SP units (default=1)
-gpgpu_num_dp_units                     0 # Number of DP units (default=0)
-gpgpu_num_int_units                    0 # Number of INT units (default=0)
-gpgpu_num_sfu_units                    1 # Number of SF units (default=1)
-gpgpu_num_tensor_core_units                    0 # Number of tensor_core units (default=1)
-gpgpu_num_mem_units                    1 # Number if ldst units (default=1) WARNING: not hooked up to anything
-gpgpu_scheduler                      gto # Scheduler configuration: < lrr | gto | two_level_active > If two_level_active:<num_active_warps>:<inner_prioritization>:<outer_prioritization>For complete list of prioritization values see shader.h enum scheduler_prioritization_typeDefault: gto
-gpgpu_concurrent_kernel_sm                    0 # Support concurrent kernels on a SM (default = disabled)
-gpgpu_perfect_inst_const_cache                    0 # perfect inst and const cache mode, so all inst and const hits in the cache(default = disabled)
-gpgpu_inst_fetch_throughput                    1 # the number of fetched intruction per warp each cycle
-gpgpu_reg_file_port_throughput                    1 # the number ports of the register file
-specialized_unit_1         0,4,4,4,4,BRA # specialized unit config {<enabled>,<num_units>:<latency>:<initiation>,<ID_OC_SPEC>:<OC_EX_SPEC>,<NAME>}
-specialized_unit_2         0,4,4,4,4,BRA # specialized unit config {<enabled>,<num_units>:<latency>:<initiation>,<ID_OC_SPEC>:<OC_EX_SPEC>,<NAME>}
-specialized_unit_3         0,4,4,4,4,BRA # specialized unit config {<enabled>,<num_units>:<latency>:<initiation>,<ID_OC_SPEC>:<OC_EX_SPEC>,<NAME>}
-specialized_unit_4         0,4,4,4,4,BRA # specialized unit config {<enabled>,<num_units>:<latency>:<initiation>,<ID_OC_SPEC>:<OC_EX_SPEC>,<NAME>}
-specialized_unit_5         0,4,4,4,4,BRA # specialized unit config {<enabled>,<num_units>:<latency>:<initiation>,<ID_OC_SPEC>:<OC_EX_SPEC>,<NAME>}
-specialized_unit_6         0,4,4,4,4,BRA # specialized unit config {<enabled>,<num_units>:<latency>:<initiation>,<ID_OC_SPEC>:<OC_EX_SPEC>,<NAME>}
-specialized_unit_7         0,4,4,4,4,BRA # specialized unit config {<enabled>,<num_units>:<latency>:<initiation>,<ID_OC_SPEC>:<OC_EX_SPEC>,<NAME>}
-specialized_unit_8         0,4,4,4,4,BRA # specialized unit config {<enabled>,<num_units>:<latency>:<initiation>,<ID_OC_SPEC>:<OC_EX_SPEC>,<NAME>}
-gpgpu_perf_sim_memcpy                    1 # Fill the L2 cache on memcpy
-gpgpu_simple_dram_model                    0 # simple_dram_model with fixed latency and BW
-gpgpu_dram_scheduler                    1 # 0 = fifo, 1 = FR-FCFS (defaul)
-gpgpu_dram_partition_queues              8:8:8:8 # i2$:$2d:d2$:$2i
-l2_ideal                               0 # Use a ideal L2 cache that always hit
-gpgpu_cache:dl2     N:64:128:16,L:B:m:W:L,A:1024:1024,4:0,32 # unified banked L2 data cache config  {<nsets>:<bsize>:<assoc>,<rep>:<wr>:<alloc>:<wr_alloc>,<mshr>:<N>:<merge>,<mq>}
-gpgpu_cache:dl2_texture_only                    0 # L2 cache used for texture only
-gpgpu_n_mem                            8 # number of memory modules (e.g. memory controllers) in gpu
-gpgpu_n_sub_partition_per_mchannel                    2 # number of memory subpartition in each memory module
-gpgpu_n_mem_per_ctrlr                    1 # number of memory chips per memory controller
-gpgpu_memlatency_stat                   14 # track and display latency statistics 0x2 enables MC, 0x4 enables queue logs
-gpgpu_frfcfs_dram_sched_queue_size                   64 # 0 = unlimited (default); # entries per chip
-gpgpu_dram_return_queue_size                  116 # 0 = unlimited (default); # entries per chip
-gpgpu_dram_buswidth                    4 # default = 4 bytes (8 bytes per cycle at DDR)
-gpgpu_dram_burst_length                    8 # Burst length of each DRAM request (default = 4 data bus cycle)
-dram_data_command_freq_ratio                    4 # Frequency ratio between DRAM data bus and command bus (default = 2 times, i.e. DDR)
-gpgpu_dram_timing_opt nbk=16:CCD=2:RRD=6:RCD=12:RAS=28:RP=12:RC=40: CL=12:WL=4:CDLR=5:WR=12:nbkgrp=1:CCDL=0:RTPL=0 # DRAM timing parameters = {nbk:tCCD:tRRD:tRCD:tRAS:tRP:tRC:CL:WL:tCDLR:tWR:nbkgrp:tCCDL:tRTPL}
-gpgpu_l2_rop_latency                  120 # ROP queue latency (default 85)
-dram_latency                         100 # DRAM latency (default 30)
-dram_dual_bus_interface                    0 # dual_bus_interface (default = 0) 
-dram_bnk_indexing_policy                    0 # dram_bnk_indexing_policy (0 = normal indexing, 1 = Xoring with the higher bits) (Default = 0)
-dram_bnkgrp_indexing_policy                    0 # dram_bnkgrp_indexing_policy (0 = take higher bits, 1 = take lower bits) (Default = 0)
-dram_seperate_write_queue_enable                    0 # Seperate_Write_Queue_Enable
-dram_write_queue_size             32:28:16 # Write_Queue_Size
-dram_elimnate_rw_turnaround                    0 # elimnate_rw_turnaround i.e set tWTR and tRTW = 0
-icnt_flit_size                        32 # icnt_flit_size
-gpgpu_mem_addr_mapping dramid@8;00000000.00000000.00000000.00000000.0000RRRR.RRRRRRRR.RBBBCCCC.BCCSSSSS # mapping memory address to dram model {dramid@<start bit>;<memory address map>}
-gpgpu_mem_addr_test                    0 # run sweep test to check address mapping for aliased address
-gpgpu_mem_address_mask                    1 # 0 = old addressing mask, 1 = new addressing mask, 2 = new add. mask + flipped bank sel and chip sel bits
-gpgpu_memory_partition_indexing                    0 # 0 = no indexing, 1 = bitwise xoring, 2 = IPoly, 3 = custom indexing
-accelwattch_xml_file accelwattch_sass_sim.xml # AccelWattch XML file
-power_simulation_enabled                    0 # Turn on power simulator (1=On, 0=Off)
-power_per_cycle_dump                    0 # Dump detailed power output each cycle
-hw_perf_file_name            hw_perf.csv # Hardware Performance Statistics file
-hw_perf_bench_name                       # Kernel Name in Hardware Performance Statistics file
-power_simulation_mode                    0 # Switch performance counter input for power simulation (0=Sim, 1=HW, 2=HW-Sim Hybrid)
-dvfs_enabled                           0 # Turn on DVFS for power model
-aggregate_power_stats                    0 # Accumulate power across all kernels
-accelwattch_hybrid_perfsim_L1_RH                    0 # Get L1 Read Hits for Accelwattch-Hybrid from Accel-Sim
-accelwattch_hybrid_perfsim_L1_RM                    0 # Get L1 Read Misses for Accelwattch-Hybrid from Accel-Sim
-accelwattch_hybrid_perfsim_L1_WH                    0 # Get L1 Write Hits for Accelwattch-Hybrid from Accel-Sim
-accelwattch_hybrid_perfsim_L1_WM                    0 # Get L1 Write Misses for Accelwattch-Hybrid from Accel-Sim
-accelwattch_hybrid_perfsim_L2_RH                    0 # Get L2 Read Hits for Accelwattch-Hybrid from Accel-Sim
-accelwattch_hybrid_perfsim_L2_RM                    0 # Get L2 Read Misses for Accelwattch-Hybrid from Accel-Sim
-accelwattch_hybrid_perfsim_L2_WH                    0 # Get L2 Write Hits for Accelwattch-Hybrid from Accel-Sim
-accelwattch_hybrid_perfsim_L2_WM                    0 # Get L2 Write Misses for Accelwattch-Hybrid from Accel-Sim
-accelwattch_hybrid_perfsim_CC_ACC                    0 # Get Constant Cache Acesses for Accelwattch-Hybrid from Accel-Sim
-accelwattch_hybrid_perfsim_SHARED_ACC                    0 # Get Shared Memory Acesses for Accelwattch-Hybrid from Accel-Sim
-accelwattch_hybrid_perfsim_DRAM_RD                    0 # Get DRAM Reads for Accelwattch-Hybrid from Accel-Sim
-accelwattch_hybrid_perfsim_DRAM_WR                    0 # Get DRAM Writes for Accelwattch-Hybrid from Accel-Sim
-accelwattch_hybrid_perfsim_NOC                    0 # Get Interconnect Acesses for Accelwattch-Hybrid from Accel-Sim
-accelwattch_hybrid_perfsim_PIPE_DUTY                    0 # Get Pipeline Duty Cycle Acesses for Accelwattch-Hybrid from Accel-Sim
-accelwattch_hybrid_perfsim_NUM_SM_IDLE                    0 # Get Number of Idle SMs for Accelwattch-Hybrid from Accel-Sim
-accelwattch_hybrid_perfsim_CYCLES                    0 # Get Executed Cycles for Accelwattch-Hybrid from Accel-Sim
-accelwattch_hybrid_perfsim_VOLTAGE                    0 # Get Chip Voltage for Accelwattch-Hybrid from Accel-Sim
-power_trace_enabled                    0 # produce a file for the power trace (1=On, 0=Off)
-power_trace_zlevel                     6 # Compression level of the power trace output log (0=no comp, 9=highest)
-steady_power_levels_enabled                    0 # produce a file for the steady power levels (1=On, 0=Off)
-steady_state_definition                  8:4 # allowed deviation:number of samples
-gpgpu_max_cycle                        0 # terminates gpu simulation early (0 = no limit)
-gpgpu_max_insn                         0 # terminates gpu simulation early (0 = no limit)
-gpgpu_max_cta                          0 # terminates gpu simulation early (0 = no limit)
-gpgpu_max_completed_cta                    0 # terminates gpu simulation early (0 = no limit)
-gpgpu_runtime_stat                   500 # display runtime statistics such as dram utilization {<freq>:<flag>}
-liveness_message_freq                    1 # Minimum number of seconds between simulation liveness messages (0 = always print)
-gpgpu_compute_capability_major                    7 # Major compute capability version number
-gpgpu_compute_capability_minor                    0 # Minor compute capability version number
-gpgpu_flush_l1_cache                    0 # Flush L1 cache at the end of each kernel call
-gpgpu_flush_l2_cache                    0 # Flush L2 cache at the end of each kernel call
-gpgpu_deadlock_detect                    1 # Stop the simulation at deadlock (1=on (default), 0=off)
-gpgpu_ptx_instruction_classification                    0 # if enabled will classify ptx instruction types per kernel (Max 255 kernels now)
-gpgpu_ptx_sim_mode                     0 # Select between Performance (default) or Functional simulation (1)
-gpgpu_clock_domains 1607.0:1607.0:1607.0:2500.0 # Clock Domain Frequencies in MhZ {<Core Clock>:<ICNT Clock>:<L2 Clock>:<DRAM Clock>}
-gpgpu_max_concurrent_kernel                   32 # maximum kernels that can run concurrently on GPU, set this value according to max resident grids for your compute capability
-gpgpu_cflog_interval                    0 # Interval between each snapshot in control flow logger
-visualizer_enabled                     0 # Turn on visualizer output (1=On, 0=Off)
-visualizer_outputfile                 NULL # Specifies the output log file for visualizer
-visualizer_zlevel                      6 # Compression level of the visualizer output log (0=no comp, 9=highest)
-gpgpu_stack_size_limit                 1024 # GPU thread stack size
-gpgpu_heap_size_limit              8388608 # GPU malloc heap size 
-gpgpu_runtime_sync_depth_limit                    2 # GPU device runtime synchronize depth
-gpgpu_runtime_pending_launch_count_limit                 2048 # GPU device runtime pending launch count
-trace_enabled                          0 # Turn on traces
-trace_components                    none # comma seperated list of traces to enable. Complete list found in trace_streams.tup. Default none
-trace_sampling_core                    0 # The core which is printed using CORE_DPRINTF. Default 0
-trace_sampling_memory_partition                   -1 # The memory partition which is printed using MEMPART_DPRINTF. Default -1 (i.e. all)
-enable_ptx_file_line_stats                    1 # Turn on PTX source line statistic profiling. (1 = On)
-ptx_line_stats_filename gpgpu_inst_stats.txt # Output file for PTX source line statistics.
-gpgpu_kernel_launch_latency                    0 # Kernel launch latency in cycles. Default: 0
-gpgpu_cdp_enabled                      0 # Turn on CDP
-gpgpu_TB_launch_latency                    0 # thread block launch latency in cycles. Default: 0
DRAM Timing Options:
nbk                                    16 # number of banks
CCD                                     2 # column to column delay
RRD                                     6 # minimal delay between activation of rows in different banks
RCD                                    12 # row to column delay
RAS                                    28 # time needed to activate row
RP                                     12 # time needed to precharge (deactivate) row
RC                                     40 # row cycle time
CDLR                                    5 # switching from write to read (changes tWTR)
WR                                     12 # last data-in to row precharge
CL                                     12 # CAS latency
WL                                      4 # Write latency
nbkgrp                                  1 # number of bank groups
CCDL                                    0 # column to column delay between accesses to different bank groups
RTPL                                    0 # read to precharge delay between accesses to different bank groups
Total number of memory sub partition = 16
addr_dec_mask[CHIP]  = 0000000000000700 	high:11 low:8
addr_dec_mask[BK]    = 0000000000038080 	high:18 low:7
addr_dec_mask[ROW]   = 000000007ffc0000 	high:31 low:18
addr_dec_mask[COL]   = 000000000000787f 	high:15 low:0
addr_dec_mask[BURST] = 000000000000001f 	high:5 low:0
sub_partition_id_mask = 0000000000000080
GPGPU-Sim uArch: clock freqs: 1607000000.000000:1607000000.000000:1607000000.000000:2500000000.000000
GPGPU-Sim uArch: clock periods: 0.00000000062227753578:0.00000000062227753578:0.00000000062227753578:0.00000000040000000000
*** Initializing Memory Statistics ***
GPGPU-Sim uArch: interconnect node map (shaderID+MemID to icntID)
GPGPU-Sim uArch: Memory nodes ID start from index: 20
GPGPU-Sim uArch:    0   1   2   3   4   5   6
GPGPU-Sim uArch:    7   8   9  10  11  12  13
GPGPU-Sim uArch:   14  15  16  17  18  19  20
GPGPU-Sim uArch:   21  22  23  24  25  26  27
GPGPU-Sim uArch:   28  29  30  31  32  33  34
GPGPU-Sim uArch:   35  36  37  38  39  40  41
GPGPU-Sim uArch:   42  43  44  45  46  47  48
GPGPU-Sim uArch:   49
GPGPU-Sim uArch: interconnect node reverse map (icntID to shaderID+MemID)
GPGPU-Sim uArch: Memory nodes start from ID: 20
GPGPU-Sim uArch:    0   1   2   3   4   5   6
GPGPU-Sim uArch:    7   8   9  10  11  12  13
GPGPU-Sim uArch:   14  15  16  17  18  19  20
GPGPU-Sim uArch:   21  22  23  24  25  26  27
GPGPU-Sim uArch:   28  29  30  31  32  33  34
GPGPU-Sim uArch:   35  36  37  38  39  40  41
GPGPU-Sim uArch:   42  43  44  45  46  47  48
GPGPU-Sim uArch:   49
e90e1593f550adeda12807e5bb92529b  /benchrun/accelsim-ptx/sm6_gtx1080/babelstream/input-arraysize-102400-numtimes-1/CUDAStream
Extracting PTX file and ptxas options    1: CUDAStream.1.sm_30.ptx -arch=sm_30
GPGPU-Sim uArch: performance model initialization complete.
self exe links to: /benchrun/accelsim-ptx/sm6_gtx1080/babelstream/input-arraysize-102400-numtimes-1/CUDAStream
self exe links to: /benchrun/accelsim-ptx/sm6_gtx1080/babelstream/input-arraysize-102400-numtimes-1/CUDAStream
10.1
GPGPU-Sim PTX: __cudaRegisterFatBinary, fat_cubin_handle = 1, filename=default
self exe links to: /benchrun/accelsim-ptx/sm6_gtx1080/babelstream/input-arraysize-102400-numtimes-1/CUDAStream
Running md5sum using "md5sum /benchrun/accelsim-ptx/sm6_gtx1080/babelstream/input-arraysize-102400-numtimes-1/CUDAStream "
self exe links to: /benchrun/accelsim-ptx/sm6_gtx1080/babelstream/input-arraysize-102400-numtimes-1/CUDAStream
Extracting specific PTX file named CUDAStream.1.sm_30.ptx 
GPGPU-Sim PTX: __cudaRegisterFunction _Z11init_kernelIdEvPT_S1_S1_S0_S0_S0_ : hostFun 0x0x55ce3e8104f1, fat_cubin_handle = 1
GPGPU-Sim PTX: Parsing CUDAStream.1.sm_30.ptx
GPGPU-Sim PTX: instruction assembly for function '_Z11copy_kernelIfEvPKT_PS0_'...   done.
GPGPU-Sim PTX: instruction assembly for function '_Z10add_kernelIfEvPKT_S2_PS0_'...   done.
GPGPU-Sim PTX: instruction assembly for function '_Z10mul_kernelIfEvPT_PKS0_'...   done.
GPGPU-Sim PTX: instruction assembly for function '_Z12triad_kernelIfEvPT_PKS0_S3_'...   done.
GPGPU-Sim PTX: instruction assembly for function '_Z14nstream_kernelIfEvPT_PKS0_S3_'...   done.
GPGPU-Sim PTX: allocating shared region for "_ZZ10dot_kernelIfEvPKT_S2_PS0_iE6tb_sum" from 0x0 to 0x1000 (shared memory space)
GPGPU-Sim PTX: instruction assembly for function '_Z10dot_kernelIfEvPKT_S2_PS0_i'...   done.
GPGPU-Sim PTX: instruction assembly for function '_Z11init_kernelIfEvPT_S1_S1_S0_S0_S0_'...   done.
GPGPU-Sim PTX: instruction assembly for function '_Z11copy_kernelIdEvPKT_PS0_'...   done.
GPGPU-Sim PTX: instruction assembly for function '_Z10add_kernelIdEvPKT_S2_PS0_'...   done.
GPGPU-Sim PTX: instruction assembly for function '_Z10mul_kernelIdEvPT_PKS0_'...   done.
GPGPU-Sim PTX: instruction assembly for function '_Z12triad_kernelIdEvPT_PKS0_S3_'...   done.
GPGPU-Sim PTX: instruction assembly for function '_Z14nstream_kernelIdEvPT_PKS0_S3_'...   done.
GPGPU-Sim PTX: allocating shared region for "_ZZ10dot_kernelIdEvPKT_S2_PS0_iE6tb_sum" from 0x0 to 0x2000 (shared memory space)
GPGPU-Sim PTX: instruction assembly for function '_Z10dot_kernelIdEvPKT_S2_PS0_i'...   done.
GPGPU-Sim PTX: instruction assembly for function '_Z11init_kernelIdEvPT_S1_S1_S0_S0_S0_'...   done.
GPGPU-Sim PTX: finished parsing EMBEDDED .ptx file CUDAStream.1.sm_30.ptx
GPGPU-Sim PTX: loading globals with explicit initializers... 
GPGPU-Sim PTX: finished loading globals (0 bytes total).
GPGPU-Sim PTX: loading constants with explicit initializers...  done.
GPGPU-Sim PTX: Loading PTXInfo from CUDAStream.1.sm_30.ptx
GPGPU-Sim PTX: Kernel '_Z11init_kernelIdEvPT_S1_S1_S0_S0_S0_' : regs=14, lmem=0, smem=0, cmem=368
GPGPU-Sim PTX: Kernel '_Z10dot_kernelIdEvPKT_S2_PS0_i' : regs=12, lmem=0, smem=8192, cmem=348
GPGPU-Sim PTX: Kernel '_Z14nstream_kernelIdEvPT_PKS0_S3_' : regs=12, lmem=0, smem=0, cmem=352
GPGPU-Sim PTX: Kernel '_Z12triad_kernelIdEvPT_PKS0_S3_' : regs=10, lmem=0, smem=0, cmem=352
GPGPU-Sim PTX: Kernel '_Z10mul_kernelIdEvPT_PKS0_' : regs=8, lmem=0, smem=0, cmem=344
GPGPU-Sim PTX: Kernel '_Z10add_kernelIdEvPKT_S2_PS0_' : regs=10, lmem=0, smem=0, cmem=344
GPGPU-Sim PTX: Kernel '_Z11copy_kernelIdEvPKT_PS0_' : regs=6, lmem=0, smem=0, cmem=336
GPGPU-Sim PTX: Kernel '_Z11init_kernelIfEvPT_S1_S1_S0_S0_S0_' : regs=10, lmem=0, smem=0, cmem=356
GPGPU-Sim PTX: Kernel '_Z10dot_kernelIfEvPKT_S2_PS0_i' : regs=12, lmem=0, smem=4096, cmem=348
GPGPU-Sim PTX: Kernel '_Z14nstream_kernelIfEvPT_PKS0_S3_' : regs=10, lmem=0, smem=0, cmem=348
GPGPU-Sim PTX: Kernel '_Z12triad_kernelIfEvPT_PKS0_S3_' : regs=8, lmem=0, smem=0, cmem=348
GPGPU-Sim PTX: Kernel '_Z10mul_kernelIfEvPT_PKS0_' : regs=6, lmem=0, smem=0, cmem=336
GPGPU-Sim PTX: Kernel '_Z10add_kernelIfEvPKT_S2_PS0_' : regs=8, lmem=0, smem=0, cmem=344
GPGPU-Sim PTX: Kernel '_Z11copy_kernelIfEvPKT_PS0_' : regs=6, lmem=0, smem=0, cmem=336
GPGPU-Sim PTX: __cudaRegisterFunction _Z10dot_kernelIdEvPKT_S2_PS0_i : hostFun 0x0x55ce3e8104bf, fat_cubin_handle = 1
GPGPU-Sim PTX: __cudaRegisterFunction _Z14nstream_kernelIdEvPT_PKS0_S3_ : hostFun 0x0x55ce3e810491, fat_cubin_handle = 1
GPGPU-Sim PTX: __cudaRegisterFunction _Z12triad_kernelIdEvPT_PKS0_S3_ : hostFun 0x0x55ce3e810463, fat_cubin_handle = 1
GPGPU-Sim PTX: __cudaRegisterFunction _Z10mul_kernelIdEvPT_PKS0_ : hostFun 0x0x55ce3e81043d, fat_cubin_handle = 1
GPGPU-Sim PTX: __cudaRegisterFunction _Z10add_kernelIdEvPKT_S2_PS0_ : hostFun 0x0x55ce3e81040f, fat_cubin_handle = 1
GPGPU-Sim PTX: __cudaRegisterFunction _Z11copy_kernelIdEvPKT_PS0_ : hostFun 0x0x55ce3e8103e9, fat_cubin_handle = 1
GPGPU-Sim PTX: __cudaRegisterFunction _Z11init_kernelIfEvPT_S1_S1_S0_S0_S0_ : hostFun 0x0x55ce3e81039d, fat_cubin_handle = 1
GPGPU-Sim PTX: __cudaRegisterFunction _Z10dot_kernelIfEvPKT_S2_PS0_i : hostFun 0x0x55ce3e81036b, fat_cubin_handle = 1
GPGPU-Sim PTX: __cudaRegisterFunction _Z14nstream_kernelIfEvPT_PKS0_S3_ : hostFun 0x0x55ce3e81033d, fat_cubin_handle = 1
GPGPU-Sim PTX: __cudaRegisterFunction _Z12triad_kernelIfEvPT_PKS0_S3_ : hostFun 0x0x55ce3e81030f, fat_cubin_handle = 1
GPGPU-Sim PTX: __cudaRegisterFunction _Z10mul_kernelIfEvPT_PKS0_ : hostFun 0x0x55ce3e8102e9, fat_cubin_handle = 1
GPGPU-Sim PTX: __cudaRegisterFunction _Z10add_kernelIfEvPKT_S2_PS0_ : hostFun 0x0x55ce3e8102bb, fat_cubin_handle = 1
GPGPU-Sim PTX: __cudaRegisterFunction _Z11copy_kernelIfEvPKT_PS0_ : hostFun 0x0x55ce3e810295, fat_cubin_handle = 1
BabelStream
Version: 4.0
Implementation: CUDA
Running kernels 1 times
Precision: double
Array size: 0.8 MB (=0.0 GB)
Total size: 2.5 MB (=0.0 GB)
Using CUDA device GPGPU-Sim_vGPGPU-Sim Simulator Version 4.2.0 
Driver: 10010
GPGPU-Sim PTX: Setting up arguments for 8 bytes starting at 0x7ffe98078348..
GPGPU-Sim PTX: Setting up arguments for 8 bytes starting at 0x7ffe98078340..
GPGPU-Sim PTX: Setting up arguments for 8 bytes starting at 0x7ffe98078338..
GPGPU-Sim PTX: Setting up arguments for 8 bytes starting at 0x7ffe98078330..
GPGPU-Sim PTX: Setting up arguments for 8 bytes starting at 0x7ffe98078328..
GPGPU-Sim PTX: Setting up arguments for 8 bytes starting at 0x7ffe98078320..

GPGPU-Sim PTX: cudaLaunch for 0x0x55ce3e8104f1 (mode=performance simulation) on stream 0
GPGPU-Sim PTX: finding reconvergence points for '_Z11init_kernelIdEvPT_S1_S1_S0_S0_S0_'...
GPGPU-Sim PTX: Finding dominators for '_Z11init_kernelIdEvPT_S1_S1_S0_S0_S0_'...
GPGPU-Sim PTX: Finding immediate dominators for '_Z11init_kernelIdEvPT_S1_S1_S0_S0_S0_'...
GPGPU-Sim PTX: Finding postdominators for '_Z11init_kernelIdEvPT_S1_S1_S0_S0_S0_'...
GPGPU-Sim PTX: Finding immediate postdominators for '_Z11init_kernelIdEvPT_S1_S1_S0_S0_S0_'...
GPGPU-Sim PTX: pre-decoding instructions for '_Z11init_kernelIdEvPT_S1_S1_S0_S0_S0_'...
GPGPU-Sim PTX: reconvergence points for _Z11init_kernelIdEvPT_S1_S1_S0_S0_S0_...
GPGPU-Sim PTX: ... end of reconvergence points for _Z11init_kernelIdEvPT_S1_S1_S0_S0_S0_
GPGPU-Sim PTX: ... done pre-decoding instructions for '_Z11init_kernelIdEvPT_S1_S1_S0_S0_S0_'.
GPGPU-Sim PTX: pushing kernel '_Z11init_kernelIdEvPT_S1_S1_S0_S0_S0_' to stream 0, gridDim= (100,1,1) blockDim = (1024,1,1) 
GPGPU-Sim uArch: Shader 0 bind to kernel 1 '_Z11init_kernelIdEvPT_S1_S1_S0_S0_S0_'
GPGPU-Sim uArch: CTA/core = 2, limited by: threads
GPGPU-Sim uArch: Shader 1 bind to kernel 1 '_Z11init_kernelIdEvPT_S1_S1_S0_S0_S0_'
GPGPU-Sim uArch: Shader 2 bind to kernel 1 '_Z11init_kernelIdEvPT_S1_S1_S0_S0_S0_'
GPGPU-Sim uArch: Shader 3 bind to kernel 1 '_Z11init_kernelIdEvPT_S1_S1_S0_S0_S0_'
GPGPU-Sim uArch: Shader 4 bind to kernel 1 '_Z11init_kernelIdEvPT_S1_S1_S0_S0_S0_'
GPGPU-Sim uArch: Shader 5 bind to kernel 1 '_Z11init_kernelIdEvPT_S1_S1_S0_S0_S0_'
GPGPU-Sim uArch: Shader 6 bind to kernel 1 '_Z11init_kernelIdEvPT_S1_S1_S0_S0_S0_'
GPGPU-Sim uArch: Shader 7 bind to kernel 1 '_Z11init_kernelIdEvPT_S1_S1_S0_S0_S0_'
GPGPU-Sim uArch: Shader 8 bind to kernel 1 '_Z11init_kernelIdEvPT_S1_S1_S0_S0_S0_'
GPGPU-Sim uArch: Shader 9 bind to kernel 1 '_Z11init_kernelIdEvPT_S1_S1_S0_S0_S0_'
GPGPU-Sim uArch: Shader 10 bind to kernel 1 '_Z11init_kernelIdEvPT_S1_S1_S0_S0_S0_'
GPGPU-Sim uArch: Shader 11 bind to kernel 1 '_Z11init_kernelIdEvPT_S1_S1_S0_S0_S0_'
GPGPU-Sim uArch: Shader 12 bind to kernel 1 '_Z11init_kernelIdEvPT_S1_S1_S0_S0_S0_'
GPGPU-Sim uArch: Shader 13 bind to kernel 1 '_Z11init_kernelIdEvPT_S1_S1_S0_S0_S0_'
GPGPU-Sim uArch: Shader 14 bind to kernel 1 '_Z11init_kernelIdEvPT_S1_S1_S0_S0_S0_'
GPGPU-Sim uArch: Shader 15 bind to kernel 1 '_Z11init_kernelIdEvPT_S1_S1_S0_S0_S0_'
GPGPU-Sim uArch: Shader 16 bind to kernel 1 '_Z11init_kernelIdEvPT_S1_S1_S0_S0_S0_'
GPGPU-Sim uArch: Shader 17 bind to kernel 1 '_Z11init_kernelIdEvPT_S1_S1_S0_S0_S0_'
GPGPU-Sim uArch: Shader 18 bind to kernel 1 '_Z11init_kernelIdEvPT_S1_S1_S0_S0_S0_'
GPGPU-Sim uArch: Shader 19 bind to kernel 1 '_Z11init_kernelIdEvPT_S1_S1_S0_S0_S0_'
Destroy streams for kernel 1: size 0
kernel_name = _Z11init_kernelIdEvPT_S1_S1_S0_S0_S0_ 
kernel_launch_uid = 1 
gpu_sim_cycle = 30252
gpu_sim_insn = 2150400
gpu_ipc =      71.0829
gpu_tot_sim_cycle = 30252
gpu_tot_sim_insn = 2150400
gpu_tot_ipc =      71.0829
gpu_tot_issued_cta = 100
gpu_occupancy = 65.7575% 
gpu_tot_occupancy = 65.7575% 
max_total_param_size = 0
gpu_stall_dramfull = 171084
gpu_stall_icnt2sh    = 301
partiton_level_parallism =       0.6373
partiton_level_parallism_total  =       0.6373
partiton_level_parallism_util =       2.1335
partiton_level_parallism_util_total  =       2.1335
L2_BW  =      32.7732 GB/Sec
L2_BW_total  =      32.7732 GB/Sec
gpu_total_sim_rate=113178

========= Core cache stats =========
L1I_cache:
	L1I_total_cache_accesses = 35200
	L1I_total_cache_misses = 2050
	L1I_total_cache_miss_rate = 0.0582
	L1I_total_cache_pending_hits = 0
	L1I_total_cache_reservation_fails = 5489
L1D_cache:
	L1D_cache_core[0]: Access = 0, Miss = 0, Miss_rate = -nan, Pending_hits = 0, Reservation_fails = 0
	L1D_cache_core[1]: Access = 0, Miss = 0, Miss_rate = -nan, Pending_hits = 0, Reservation_fails = 0
	L1D_cache_core[2]: Access = 0, Miss = 0, Miss_rate = -nan, Pending_hits = 0, Reservation_fails = 0
	L1D_cache_core[3]: Access = 0, Miss = 0, Miss_rate = -nan, Pending_hits = 0, Reservation_fails = 0
	L1D_cache_core[4]: Access = 0, Miss = 0, Miss_rate = -nan, Pending_hits = 0, Reservation_fails = 0
	L1D_cache_core[5]: Access = 0, Miss = 0, Miss_rate = -nan, Pending_hits = 0, Reservation_fails = 0
	L1D_cache_core[6]: Access = 0, Miss = 0, Miss_rate = -nan, Pending_hits = 0, Reservation_fails = 0
	L1D_cache_core[7]: Access = 0, Miss = 0, Miss_rate = -nan, Pending_hits = 0, Reservation_fails = 0
	L1D_cache_core[8]: Access = 0, Miss = 0, Miss_rate = -nan, Pending_hits = 0, Reservation_fails = 0
	L1D_cache_core[9]: Access = 0, Miss = 0, Miss_rate = -nan, Pending_hits = 0, Reservation_fails = 0
	L1D_cache_core[10]: Access = 0, Miss = 0, Miss_rate = -nan, Pending_hits = 0, Reservation_fails = 0
	L1D_cache_core[11]: Access = 0, Miss = 0, Miss_rate = -nan, Pending_hits = 0, Reservation_fails = 0
	L1D_cache_core[12]: Access = 0, Miss = 0, Miss_rate = -nan, Pending_hits = 0, Reservation_fails = 0
	L1D_cache_core[13]: Access = 0, Miss = 0, Miss_rate = -nan, Pending_hits = 0, Reservation_fails = 0
	L1D_cache_core[14]: Access = 0, Miss = 0, Miss_rate = -nan, Pending_hits = 0, Reservation_fails = 0
	L1D_cache_core[15]: Access = 0, Miss = 0, Miss_rate = -nan, Pending_hits = 0, Reservation_fails = 0
	L1D_cache_core[16]: Access = 0, Miss = 0, Miss_rate = -nan, Pending_hits = 0, Reservation_fails = 0
	L1D_cache_core[17]: Access = 0, Miss = 0, Miss_rate = -nan, Pending_hits = 0, Reservation_fails = 0
	L1D_cache_core[18]: Access = 0, Miss = 0, Miss_rate = -nan, Pending_hits = 0, Reservation_fails = 0
	L1D_cache_core[19]: Access = 0, Miss = 0, Miss_rate = -nan, Pending_hits = 0, Reservation_fails = 0
	L1D_total_cache_accesses = 0
	L1D_total_cache_misses = 0
	L1D_total_cache_pending_hits = 0
	L1D_total_cache_reservation_fails = 0
	L1D_cache_data_port_util = 0.000
	L1D_cache_fill_port_util = 0.000
L1C_cache:
	L1C_total_cache_accesses = 19200
	L1C_total_cache_misses = 1280
	L1C_total_cache_miss_rate = 0.0667
	L1C_total_cache_pending_hits = 0
	L1C_total_cache_reservation_fails = 3620
L1T_cache:
	L1T_total_cache_accesses = 0
	L1T_total_cache_misses = 0
	L1T_total_cache_pending_hits = 0
	L1T_total_cache_reservation_fails = 0

Total_core_cache_stats:
	Total_core_cache_stats_breakdown[GLOBAL_ACC_R][HIT] = 0
	Total_core_cache_stats_breakdown[GLOBAL_ACC_R][HIT_RESERVED] = 0
	Total_core_cache_stats_breakdown[GLOBAL_ACC_R][MISS] = 0
	Total_core_cache_stats_breakdown[GLOBAL_ACC_R][RESERVATION_FAIL] = 0
	Total_core_cache_stats_breakdown[GLOBAL_ACC_R][SECTOR_MISS] = 0
	Total_core_cache_stats_breakdown[GLOBAL_ACC_R][MSHR_HIT] = 0
	Total_core_cache_stats_breakdown[LOCAL_ACC_R][HIT] = 0
	Total_core_cache_stats_breakdown[LOCAL_ACC_R][HIT_RESERVED] = 0
	Total_core_cache_stats_breakdown[LOCAL_ACC_R][MISS] = 0
	Total_core_cache_stats_breakdown[LOCAL_ACC_R][RESERVATION_FAIL] = 0
	Total_core_cache_stats_breakdown[LOCAL_ACC_R][SECTOR_MISS] = 0
	Total_core_cache_stats_breakdown[LOCAL_ACC_R][MSHR_HIT] = 0
	Total_core_cache_stats_breakdown[CONST_ACC_R][HIT] = 17920
	Total_core_cache_stats_breakdown[CONST_ACC_R][HIT_RESERVED] = 0
	Total_core_cache_stats_breakdown[CONST_ACC_R][MISS] = 1280
	Total_core_cache_stats_breakdown[CONST_ACC_R][RESERVATION_FAIL] = 3620
	Total_core_cache_stats_breakdown[CONST_ACC_R][SECTOR_MISS] = 0
	Total_core_cache_stats_breakdown[CONST_ACC_R][MSHR_HIT] = 1260
	Total_core_cache_stats_breakdown[TEXTURE_ACC_R][HIT] = 0
	Total_core_cache_stats_breakdown[TEXTURE_ACC_R][HIT_RESERVED] = 0
	Total_core_cache_stats_breakdown[TEXTURE_ACC_R][MISS] = 0
	Total_core_cache_stats_breakdown[TEXTURE_ACC_R][RESERVATION_FAIL] = 0
	Total_core_cache_stats_breakdown[TEXTURE_ACC_R][SECTOR_MISS] = 0
	Total_core_cache_stats_breakdown[TEXTURE_ACC_R][MSHR_HIT] = 0
	Total_core_cache_stats_breakdown[GLOBAL_ACC_W][HIT] = 0
	Total_core_cache_stats_breakdown[GLOBAL_ACC_W][HIT_RESERVED] = 0
	Total_core_cache_stats_breakdown[GLOBAL_ACC_W][MISS] = 0
	Total_core_cache_stats_breakdown[GLOBAL_ACC_W][RESERVATION_FAIL] = 0
	Total_core_cache_stats_breakdown[GLOBAL_ACC_W][SECTOR_MISS] = 0
	Total_core_cache_stats_breakdown[GLOBAL_ACC_W][MSHR_HIT] = 0
	Total_core_cache_stats_breakdown[LOCAL_ACC_W][HIT] = 0
	Total_core_cache_stats_breakdown[LOCAL_ACC_W][HIT_RESERVED] = 0
	Total_core_cache_stats_breakdown[LOCAL_ACC_W][MISS] = 0
	Total_core_cache_stats_breakdown[LOCAL_ACC_W][RESERVATION_FAIL] = 0
	Total_core_cache_stats_breakdown[LOCAL_ACC_W][SECTOR_MISS] = 0
	Total_core_cache_stats_breakdown[LOCAL_ACC_W][MSHR_HIT] = 0
	Total_core_cache_stats_breakdown[L1_WRBK_ACC][HIT] = 0
	Total_core_cache_stats_breakdown[L1_WRBK_ACC][HIT_RESERVED] = 0
	Total_core_cache_stats_breakdown[L1_WRBK_ACC][MISS] = 0
	Total_core_cache_stats_breakdown[L1_WRBK_ACC][RESERVATION_FAIL] = 0
	Total_core_cache_stats_breakdown[L1_WRBK_ACC][SECTOR_MISS] = 0
	Total_core_cache_stats_breakdown[L1_WRBK_ACC][MSHR_HIT] = 0
	Total_core_cache_stats_breakdown[L2_WRBK_ACC][HIT] = 0
	Total_core_cache_stats_breakdown[L2_WRBK_ACC][HIT_RESERVED] = 0
	Total_core_cache_stats_breakdown[L2_WRBK_ACC][MISS] = 0
	Total_core_cache_stats_breakdown[L2_WRBK_ACC][RESERVATION_FAIL] = 0
	Total_core_cache_stats_breakdown[L2_WRBK_ACC][SECTOR_MISS] = 0
	Total_core_cache_stats_breakdown[L2_WRBK_ACC][MSHR_HIT] = 0
	Total_core_cache_stats_breakdown[INST_ACC_R][HIT] = 33150
	Total_core_cache_stats_breakdown[INST_ACC_R][HIT_RESERVED] = 0
	Total_core_cache_stats_breakdown[INST_ACC_R][MISS] = 2050
	Total_core_cache_stats_breakdown[INST_ACC_R][RESERVATION_FAIL] = 5489
	Total_core_cache_stats_breakdown[INST_ACC_R][SECTOR_MISS] = 0
	Total_core_cache_stats_breakdown[INST_ACC_R][MSHR_HIT] = 1990
	Total_core_cache_stats_breakdown[L1_WR_ALLOC_R][HIT] = 0
	Total_core_cache_stats_breakdown[L1_WR_ALLOC_R][HIT_RESERVED] = 0
	Total_core_cache_stats_breakdown[L1_WR_ALLOC_R][MISS] = 0
	Total_core_cache_stats_breakdown[L1_WR_ALLOC_R][RESERVATION_FAIL] = 0
	Total_core_cache_stats_breakdown[L1_WR_ALLOC_R][SECTOR_MISS] = 0
	Total_core_cache_stats_breakdown[L1_WR_ALLOC_R][MSHR_HIT] = 0
	Total_core_cache_stats_breakdown[L2_WR_ALLOC_R][HIT] = 0
	Total_core_cache_stats_breakdown[L2_WR_ALLOC_R][HIT_RESERVED] = 0
	Total_core_cache_stats_breakdown[L2_WR_ALLOC_R][MISS] = 0
	Total_core_cache_stats_breakdown[L2_WR_ALLOC_R][RESERVATION_FAIL] = 0
	Total_core_cache_stats_breakdown[L2_WR_ALLOC_R][SECTOR_MISS] = 0
	Total_core_cache_stats_breakdown[L2_WR_ALLOC_R][MSHR_HIT] = 0
	Total_core_cache_stats_breakdown[CONST_ACC_R][TOTAL_ACCESS] = 19200
	Total_core_cache_stats_breakdown[INST_ACC_R][TOTAL_ACCESS] = 35200

Total_core_cache_fail_stats:
	Total_core_cache_fail_stats_breakdown[CONST_ACC_R][MSHR_MERGE_ENRTY_FAIL] = 3620
	Total_core_cache_fail_stats_breakdown[INST_ACC_R][MSHR_MERGE_ENRTY_FAIL] = 5489
ctas_completed 100, Shader 0 warp_id issue ditsribution:
warp_id:
0, 1, 2, 3, 4, 5, 6, 7, 8, 9, 10, 11, 12, 13, 14, 15, 16, 17, 18, 19, 20, 21, 22, 23, 24, 25, 26, 27, 28, 29, 30, 31, 32, 33, 34, 35, 36, 37, 38, 39, 40, 41, 42, 43, 44, 45, 46, 47, 48, 49, 50, 51, 52, 53, 54, 55, 56, 57, 58, 59, 60, 61, 62, 63, 
distro:
63, 63, 63, 63, 63, 63, 63, 63, 63, 63, 63, 63, 63, 63, 63, 63, 63, 63, 63, 63, 63, 63, 63, 63, 63, 63, 63, 63, 63, 63, 63, 63, 42, 42, 42, 42, 42, 42, 42, 42, 42, 42, 42, 42, 42, 42, 42, 42, 42, 42, 42, 42, 42, 42, 42, 42, 42, 42, 42, 42, 42, 42, 42, 42, 
gpgpu_n_tot_thrd_icount = 2150400
gpgpu_n_tot_w_icount = 67200
gpgpu_n_stall_shd_mem = 517393
gpgpu_n_mem_read_local = 0
gpgpu_n_mem_write_local = 0
gpgpu_n_mem_read_global = 0
gpgpu_n_mem_write_global = 19200
gpgpu_n_mem_texture = 0
gpgpu_n_mem_const = 20
gpgpu_n_load_insn  = 0
gpgpu_n_store_insn = 307200
gpgpu_n_shmem_insn = 0
gpgpu_n_sstarr_insn = 0
gpgpu_n_tex_insn = 0
gpgpu_n_const_mem_insn = 0
gpgpu_n_param_mem_insn = 614400
gpgpu_n_shmem_bkconflict = 0
gpgpu_n_cache_bkconflict = 0
gpgpu_n_intrawarp_mshr_merge = 0
gpgpu_n_cmem_portconflict = 3620
gpgpu_stall_shd_mem[c_mem][resource_stall] = 3620
gpgpu_stall_shd_mem[s_mem][bk_conf] = 0
gpgpu_stall_shd_mem[gl_mem][resource_stall] = 0
gpgpu_stall_shd_mem[gl_mem][coal_stall] = 9600
gpgpu_stall_shd_mem[gl_mem][data_port_stall] = 0
gpu_reg_bank_conflict_stalls = 0
Warp Occupancy Distribution:
Stall:1002541	W0_Idle:96086	W0_Scoreboard:4863	W1:0	W2:0	W3:0	W4:0	W5:0	W6:0	W7:0	W8:0	W9:0	W10:0	W11:0	W12:0	W13:0	W14:0	W15:0	W16:0	W17:0	W18:0	W19:0	W20:0	W21:0	W22:0	W23:0	W24:0	W25:0	W26:0	W27:0	W28:0	W29:0	W30:0	W31:0	W32:67200
single_issue_nums: WS0:33600	WS1:33600	
dual_issue_nums: WS0:0	WS1:0	
traffic_breakdown_coretomem[CONST_ACC_R] = 160 {8:20,}
traffic_breakdown_coretomem[GLOBAL_ACC_W] = 2611200 {136:19200,}
traffic_breakdown_coretomem[INST_ACC_R] = 480 {8:60,}
traffic_breakdown_memtocore[CONST_ACC_R] = 1440 {72:20,}
traffic_breakdown_memtocore[GLOBAL_ACC_W] = 153600 {8:19200,}
traffic_breakdown_memtocore[INST_ACC_R] = 8160 {136:60,}
maxmflatency = 3752 
max_icnt2mem_latency = 1169 
maxmrqlatency = 2694 
max_icnt2sh_latency = 24 
averagemflatency = 978 
avg_icnt2mem_latency = 114 
avg_mrq_latency = 317 
avg_icnt2sh_latency = 8 
mrq_lat_table:4041 	41 	415 	815 	1595 	2633 	4801 	6799 	8583 	6997 	1673 	11 	0 	0 	0 	0 	0 	0 	0 	0 	0 	0 	0 	0 	0 	0 	0 	0 	0 	0 	0 	0 	
dq_lat_table:0 	0 	0 	0 	0 	0 	0 	0 	0 	0 	0 	0 	0 	0 	0 	0 	0 	0 	0 	0 	0 	0 	0 	0 	0 	0 	0 	0 	0 	0 	0 	0 	
mf_lat_table:0 	0 	0 	0 	0 	0 	0 	16 	3407 	7721 	7608 	468 	0 	0 	0 	0 	0 	0 	0 	0 	0 	0 	0 	0 	0 	0 	0 	0 	0 	0 	0 	0 	
icnt2mem_lat_table:0 	0 	0 	104 	7523 	3405 	2536 	2755 	2607 	348 	2 	0 	0 	0 	0 	0 	0 	0 	0 	0 	0 	0 	0 	0 	
icnt2sh_lat_table:0 	0 	0 	19193 	27 	0 	0 	0 	0 	0 	0 	0 	0 	0 	0 	0 	0 	0 	0 	0 	0 	0 	0 	0 	
mf_lat_pw_table:0 	0 	0 	0 	0 	0 	0 	1 	1 	33 	24 	0 	0 	0 	0 	0 	0 	0 	0 	0 	0 	0 	0 	0 	0 	0 	0 	0 	0 	0 	0 	0 	
maximum concurrent accesses to same row:
dram[0]:        16        16        16        16        20        20        16        16        16        16        22        22        18        18        18        18 
dram[1]:        32        32        16        16        16        16        20        18        12        14        20        22        26        26        12        12 
dram[2]:        22        18        22        22        24        24        16        16        16        16        22        22        18        18        12        16 
dram[3]:        32        32        22        22        24        24        16        16        12        12        22        22        24        24        10        10 
dram[4]:        16        16        18        18        20        20        18        18        18        18        22        22        24        24        16        16 
dram[5]:        32        32        18        18        20        20        22        22        16        16        24        24        28        28        12        12 
dram[6]:        18        18        16        16        14        14        12        12        12        12        26        26        26        26        16        16 
dram[7]:        32        32        12        14        20        20        20        20        12        12        28        28        22        22        14        14 
maximum service time to same row:
dram[0]:      2980      2985      2553      2558      4561      4535      1564      1539      2482      2466      4145      3983      2723      2716      3346      3340 
dram[1]:      5176      5165      3050      3066      2986      2988      2809      2821      3476      3464      4056      4056      3610      3635      6034      6024 
dram[2]:      3570      1872      2569      2553      3433      3702      1760      1758      2546      2530      3538      3495      2752      2747      4238      4237 
dram[3]:      5683      5683      3169      3163      3227      3228      2476      2476      4244      4242      4219      4218      2943      2933      5765      5764 
dram[4]:      3433      3434      2708      2588      3886      3871      1784      1769      3392      3080      4164      4164      3315      3310      4929      4924 
dram[5]:      5641      5639      2167      2167      3120      3113      3698      3698      4168      4169      4162      4164      3922      3938      6078      6072 
dram[6]:      4127      4128      2395      2393      3936      4035      1691      1690      2978      3445      4474      4491      3445      3436      6409      6398 
dram[7]:      6021      6022      2092      2100      3354      3326      3343      3356      4015      4145      4502      4490      3874      3873      6155      6150 
average row accesses per activate:
dram[0]:  5.015625  5.000000  5.614035  5.818182  5.714286  5.818182  5.236363  5.333333  4.500000  4.500000  5.333333  4.965517  6.127660  6.697674  4.571429  4.881356 
dram[1]:  3.764706  3.732558  4.210526  4.000000  5.333333  5.245902  6.400000  6.545455  5.142857  5.142857  5.236363  5.647059  5.538462  5.333333  4.430769  4.363636 
dram[2]:  4.280000  4.280000  5.614035  5.517241  6.956522  7.111111  5.538462  5.236363  4.500000  4.500000  5.333333  5.647059  5.647059  5.433962  3.840000  3.945205 
dram[3]:  3.855422  4.000000  4.155844  4.000000  6.808511  7.111111  6.127660  6.127660  4.800000  4.965517  5.538462  5.538462  5.433962  5.433962  3.945205  4.000000 
dram[4]:  4.848485  5.079365  6.400000  6.400000  7.111111  7.111111  5.877551  6.000000  4.800000  4.965517  5.236363  5.236363  4.800000  4.881356  4.571429  5.052631 
dram[5]:  4.155844  4.155844  4.571429  4.705883  5.818182  5.818182  6.400000  6.400000  5.142857  5.236363  5.333333  5.236363  5.142857  5.333333  3.789474  3.740260 
dram[6]:  5.000000  5.079365  5.000000  5.161290  5.925926  6.808511  4.721312  5.333333  5.052631  5.333333  4.881356  5.052631  5.538462  5.538462  4.363636  4.430769 
dram[7]:  4.155844  4.155844  4.266667  4.383562  5.079365  5.079365  5.433962  5.538462  4.965517  5.236363  4.571429  4.721312  6.545455  7.024390  3.740260  3.840000 
average row locality = 38404/7627 = 5.035269
number of total memory accesses made:
dram[0]:         0         0         0         0         0         0         0         0         0         0         0         0         0         0         0         0 
dram[1]:         0         0         0         0         0         0         0         0         0         0         0         0         0         0         0         0 
dram[2]:         0         0         0         0         0         0         0         0         0         0         0         0         0         0         0         0 
dram[3]:         0         0         0         0         0         0         0         0         0         0         0         0         0         0         0         0 
dram[4]:         0         0         0         0         0         0         0         0         0         0         0         0         0         0         0         0 
dram[5]:         0         0         0         0         0         0         0         0         0         0         0         0         0         0         0         0 
dram[6]:         0         0         0         0         0         0         0         0         0         0         0         0         0         0         0         0 
dram[7]:         0         0         0         0         0         0         0         0         0         0         0         0         0         0         0         0 
total accesses: 0
min_bank_accesses = 0!
min_chip_accesses = 0!
number of total read accesses:
dram[0]:       644       640       640       640       640       640       576       576       576       576       576       576       576       576       576       576 
dram[1]:       640       644       640       640       640       640       576       576       576       576       576       576       576       576       576       576 
dram[2]:       644       644       640       640       640       640       576       576       576       576       576       576       576       576       576       576 
dram[3]:       640       640       640       640       640       640       576       576       576       576       576       576       576       576       576       576 
dram[4]:       640       640       640       640       640       640       576       576       576       576       576       576       576       576       576       576 
dram[5]:       640       640       640       640       640       640       576       576       576       576       576       576       576       576       576       576 
dram[6]:       640       640       640       640       640       640       576       576       576       576       576       576       576       576       576       576 
dram[7]:       640       640       640       640       640       640       576       576       576       576       576       576       576       576       576       576 
total dram reads = 76816
bank skew: 644/576 = 1.12
chip skew: 9608/9600 = 1.00
number of total write accesses:
dram[0]:       640       640       640       640       640       640       576       576       576       576       576       576       576       576       576       576 
dram[1]:       640       640       640       640       640       640       576       576       576       576       576       576       576       576       576       576 
dram[2]:       640       640       640       640       640       640       576       576       576       576       576       576       576       576       576       576 
dram[3]:       640       640       640       640       640       640       576       576       576       576       576       576       576       576       576       576 
dram[4]:       640       640       640       640       640       640       576       576       576       576       576       576       576       576       576       576 
dram[5]:       640       640       640       640       640       640       576       576       576       576       576       576       576       576       576       576 
dram[6]:       640       640       640       640       640       640       576       576       576       576       576       576       576       576       576       576 
dram[7]:       640       640       640       640       640       640       576       576       576       576       576       576       576       576       576       576 
total dram writes = 76800
bank skew: 640/576 = 1.11
chip skew: 9600/9600 = 1.00
average mf latency per bank:
dram[0]:        135       135       139       144       134       139       128       133       121       123       136       135       146       148       147       151
dram[1]:         78        81        97        97       121       127       148       154       126       131       120       125       109       110        84        88
dram[2]:        126       128       131       134       153       157       131       129       122       127       134       139       149       153       129       133
dram[3]:         82        86        89        93       114       121       125       130       119       126       113       119       105       110        88        93
dram[4]:        125       130       143       147       145       149       124       130       125       128       135       140       137       140       153       157
dram[5]:         78        83        81        86        96       101       123       127       108       115        95        97        97       102        85        89
dram[6]:        166       172       161       166       158       162       147       151       147       150       142       152       163       167       171       174
dram[7]:         75        79        75        78        81        85       100       104        95        98        82        85       106       110        88        91
maximum mf latency per bank:
dram[0]:       2080      2454      2336      2776      2624      2635      2365      2575      2083      2107      2180      2122      2567      2455      2436      2486
dram[1]:       1326      1353      2213      1797      2387      2654      3290      2776      2058      2125      1751      1939      1992      1960      1442      1540
dram[2]:       2045      2277      2397      2443      3342      3752      2489      2414      1944      2210      2209      2468      2564      2676      1861      1964
dram[3]:       1906      1458      1711      1677      2219      2339      2504      2516      1885      2033      1961      2079      1664      1925      1844      1853
dram[4]:       2071      1990      2479      2728      2566      2642      2275      2292      2223      2038      2383      2394      1902      2055      2532      2543
dram[5]:       1611      1622      1706      1728      1807      1881      2269      2664      2043      2061      1519      1597      1899      1937      1399      1423
dram[6]:       2632      2566      2948      2664      2722      2905      2249      2118      2365      2477      2072      2251      2280      2500      2328      2340
dram[7]:       1596      1752      1744      1903      1685      1702      2844      2859      1860      1875      1686      1623      2042      1973      1815      1826
Memory Partition 0: 
Cache L2_bank_000:
MSHR contents

Cache L2_bank_001:
MSHR contents

In Dram Latency Queue (total = 0): 
DRAM[0]: 16 bks, busW=4 BL=8 CL=12, tRRD=6 tCCD=2, tRCD=12 tRAS=28 tRP=12 tRC=40
n_cmd=47062 n_nop=26401 n_act=913 n_pre=897 n_ref_event=0 n_req=4801 n_rd=4 n_rd_L2_A=9600 n_write=9600 n_wr_bk=0 bw_util=0.8161
n_activity=42879 dram_eff=0.8957
bk0: 644a 16260i bk1: 640a 16181i bk2: 640a 15625i bk3: 640a 15327i bk4: 640a 15369i bk5: 640a 14948i bk6: 576a 18560i bk7: 576a 18100i bk8: 576a 18568i bk9: 576a 18308i bk10: 576a 18765i bk11: 576a 18599i bk12: 576a 18370i bk13: 576a 18477i bk14: 576a 18042i bk15: 576a 18214i 

------------------------------------------------------------------------

Row_Buffer_Locality = 0.810040
Row_Buffer_Locality_read = 1.000000
Row_Buffer_Locality_write = 0.620000
Bank_Level_Parallism = 11.219361
Bank_Level_Parallism_Col = 10.913300
Bank_Level_Parallism_Ready = 6.174966
write_to_read_ratio_blp_rw_average = 0.468134
GrpLevelPara = 1.000000 

BW Util details:
bwutil = 0.816115 
total_CMD = 47062 
util_bw = 38408 
Wasted_Col = 4354 
Wasted_Row = 42 
Idle = 4258 

BW Util Bottlenecks: 
RCDc_limit = 12 
RCDWRc_limit = 807 
WTRc_limit = 22207 
RTWc_limit = 21444 
CCDLc_limit = 0 
rwq = 0 
CCDLc_limit_alone = 0 
WTRc_limit_alone = 22207 
RTWc_limit_alone = 21444 

Commands details: 
total_CMD = 47062 
n_nop = 26401 
Read = 4 
Write = 9600 
L2_Alloc = 9600 
L2_WB = 0 
n_act = 913 
n_pre = 897 
n_ref = 0 
n_req = 4801 
total_req = 19204 

Dual Bus Interface Util: 
issued_total_row = 1810 
issued_total_col = 19204 
Row_Bus_Util =  0.038460 
CoL_Bus_Util = 0.408057 
Either_Row_CoL_Bus_Util = 0.439017 
Issued_on_Two_Bus_Simul_Util = 0.007501 
issued_two_Eff = 0.017085 
queue_avg = 54.229038 


dram_util_bins: 0 0 0 0 0 0 0 0 0 0
dram_eff_bins: 0 0 0 0 0 0 0 0 0 0
mrqq: max=64 avg=54.229
Memory Partition 1: 
Cache L2_bank_002:
MSHR contents

Cache L2_bank_003:
MSHR contents

In Dram Latency Queue (total = 0): 
DRAM[1]: 16 bks, busW=4 BL=8 CL=12, tRRD=6 tCCD=2, tRCD=12 tRAS=28 tRP=12 tRC=40
n_cmd=47062 n_nop=26243 n_act=992 n_pre=976 n_ref_event=0 n_req=4801 n_rd=4 n_rd_L2_A=9600 n_write=9600 n_wr_bk=0 bw_util=0.8161
n_activity=43272 dram_eff=0.8876
bk0: 640a 18722i bk1: 644a 18375i bk2: 640a 17213i bk3: 640a 17197i bk4: 640a 16116i bk5: 640a 15825i bk6: 576a 17556i bk7: 576a 17860i bk8: 576a 18211i bk9: 576a 17742i bk10: 576a 17599i bk11: 576a 18096i bk12: 576a 18816i bk13: 576a 19142i bk14: 576a 20024i bk15: 576a 19554i 

------------------------------------------------------------------------

Row_Buffer_Locality = 0.793376
Row_Buffer_Locality_read = 0.999583
Row_Buffer_Locality_write = 0.587083
Bank_Level_Parallism = 10.890035
Bank_Level_Parallism_Col = 10.576666
Bank_Level_Parallism_Ready = 5.994153
write_to_read_ratio_blp_rw_average = 0.466124
GrpLevelPara = 1.000000 

BW Util details:
bwutil = 0.816115 
total_CMD = 47062 
util_bw = 38408 
Wasted_Col = 4660 
Wasted_Row = 84 
Idle = 3910 

BW Util Bottlenecks: 
RCDc_limit = 12 
RCDWRc_limit = 948 
WTRc_limit = 22605 
RTWc_limit = 21072 
CCDLc_limit = 0 
rwq = 0 
CCDLc_limit_alone = 0 
WTRc_limit_alone = 22605 
RTWc_limit_alone = 21072 

Commands details: 
total_CMD = 47062 
n_nop = 26243 
Read = 4 
Write = 9600 
L2_Alloc = 9600 
L2_WB = 0 
n_act = 992 
n_pre = 976 
n_ref = 0 
n_req = 4801 
total_req = 19204 

Dual Bus Interface Util: 
issued_total_row = 1968 
issued_total_col = 19204 
Row_Bus_Util =  0.041817 
CoL_Bus_Util = 0.408057 
Either_Row_CoL_Bus_Util = 0.442374 
Issued_on_Two_Bus_Simul_Util = 0.007501 
issued_two_Eff = 0.016956 
queue_avg = 47.024734 


dram_util_bins: 0 0 0 0 0 0 0 0 0 0
dram_eff_bins: 0 0 0 0 0 0 0 0 0 0
mrqq: max=64 avg=47.0247
Memory Partition 2: 
Cache L2_bank_004:
MSHR contents

Cache L2_bank_005:
MSHR contents

In Dram Latency Queue (total = 0): 
DRAM[2]: 16 bks, busW=4 BL=8 CL=12, tRRD=6 tCCD=2, tRCD=12 tRAS=28 tRP=12 tRC=40
n_cmd=47062 n_nop=26302 n_act=948 n_pre=932 n_ref_event=0 n_req=4802 n_rd=8 n_rd_L2_A=9600 n_write=9600 n_wr_bk=0 bw_util=0.8163
n_activity=42772 dram_eff=0.8982
bk0: 644a 16405i bk1: 644a 15974i bk2: 640a 16551i bk3: 640a 15880i bk4: 640a 14470i bk5: 640a 14262i bk6: 576a 17657i bk7: 576a 17697i bk8: 576a 19212i bk9: 576a 18414i bk10: 576a 18227i bk11: 576a 18041i bk12: 576a 18735i bk13: 576a 18909i bk14: 576a 18373i bk15: 576a 17994i 

------------------------------------------------------------------------

Row_Buffer_Locality = 0.802582
Row_Buffer_Locality_read = 0.998751
Row_Buffer_Locality_write = 0.606250
Bank_Level_Parallism = 11.270540
Bank_Level_Parallism_Col = 10.948879
Bank_Level_Parallism_Ready = 6.182984
write_to_read_ratio_blp_rw_average = 0.465048
GrpLevelPara = 1.000000 

BW Util details:
bwutil = 0.816285 
total_CMD = 47062 
util_bw = 38416 
Wasted_Col = 4261 
Wasted_Row = 15 
Idle = 4370 

BW Util Bottlenecks: 
RCDc_limit = 12 
RCDWRc_limit = 806 
WTRc_limit = 22214 
RTWc_limit = 21047 
CCDLc_limit = 0 
rwq = 0 
CCDLc_limit_alone = 0 
WTRc_limit_alone = 22214 
RTWc_limit_alone = 21047 

Commands details: 
total_CMD = 47062 
n_nop = 26302 
Read = 8 
Write = 9600 
L2_Alloc = 9600 
L2_WB = 0 
n_act = 948 
n_pre = 932 
n_ref = 0 
n_req = 4802 
total_req = 19208 

Dual Bus Interface Util: 
issued_total_row = 1880 
issued_total_col = 19208 
Row_Bus_Util =  0.039947 
CoL_Bus_Util = 0.408142 
Either_Row_CoL_Bus_Util = 0.441120 
Issued_on_Two_Bus_Simul_Util = 0.006970 
issued_two_Eff = 0.015800 
queue_avg = 54.979942 


dram_util_bins: 0 0 0 0 0 0 0 0 0 0
dram_eff_bins: 0 0 0 0 0 0 0 0 0 0
mrqq: max=64 avg=54.9799
Memory Partition 3: 
Cache L2_bank_006:
MSHR contents

Cache L2_bank_007:
MSHR contents

In Dram Latency Queue (total = 0): 
DRAM[3]: 16 bks, busW=4 BL=8 CL=12, tRRD=6 tCCD=2, tRCD=12 tRAS=28 tRP=12 tRC=40
n_cmd=47062 n_nop=26305 n_act=979 n_pre=963 n_ref_event=0 n_req=4800 n_rd=0 n_rd_L2_A=9600 n_write=9600 n_wr_bk=0 bw_util=0.8159
n_activity=43177 dram_eff=0.8894
bk0: 640a 17494i bk1: 640a 17610i bk2: 640a 16878i bk3: 640a 16522i bk4: 640a 16951i bk5: 640a 16604i bk6: 576a 18829i bk7: 576a 18586i bk8: 576a 17765i bk9: 576a 17611i bk10: 576a 19115i bk11: 576a 18683i bk12: 576a 19402i bk13: 576a 19504i bk14: 576a 19914i bk15: 576a 19695i 

------------------------------------------------------------------------

Row_Buffer_Locality = 0.796042
Row_Buffer_Locality_read = 1.000000
Row_Buffer_Locality_write = 0.592083
Bank_Level_Parallism = 10.825638
Bank_Level_Parallism_Col = 10.500442
Bank_Level_Parallism_Ready = 5.958209
write_to_read_ratio_blp_rw_average = 0.466749
GrpLevelPara = 1.000000 

BW Util details:
bwutil = 0.815945 
total_CMD = 47062 
util_bw = 38400 
Wasted_Col = 4653 
Wasted_Row = 54 
Idle = 3955 

BW Util Bottlenecks: 
RCDc_limit = 0 
RCDWRc_limit = 972 
WTRc_limit = 21970 
RTWc_limit = 21000 
CCDLc_limit = 0 
rwq = 0 
CCDLc_limit_alone = 0 
WTRc_limit_alone = 21970 
RTWc_limit_alone = 21000 

Commands details: 
total_CMD = 47062 
n_nop = 26305 
Read = 0 
Write = 9600 
L2_Alloc = 9600 
L2_WB = 0 
n_act = 979 
n_pre = 963 
n_ref = 0 
n_req = 4800 
total_req = 19200 

Dual Bus Interface Util: 
issued_total_row = 1942 
issued_total_col = 19200 
Row_Bus_Util =  0.041265 
CoL_Bus_Util = 0.407972 
Either_Row_CoL_Bus_Util = 0.441056 
Issued_on_Two_Bus_Simul_Util = 0.008181 
issued_two_Eff = 0.018548 
queue_avg = 47.225109 


dram_util_bins: 0 0 0 0 0 0 0 0 0 0
dram_eff_bins: 0 0 0 0 0 0 0 0 0 0
mrqq: max=64 avg=47.2251
Memory Partition 4: 
Cache L2_bank_008:
MSHR contents

Cache L2_bank_009:
MSHR contents

In Dram Latency Queue (total = 0): 
DRAM[4]: 16 bks, busW=4 BL=8 CL=12, tRRD=6 tCCD=2, tRCD=12 tRAS=28 tRP=12 tRC=40
n_cmd=47062 n_nop=26446 n_act=883 n_pre=867 n_ref_event=0 n_req=4800 n_rd=0 n_rd_L2_A=9600 n_write=9600 n_wr_bk=0 bw_util=0.8159
n_activity=42895 dram_eff=0.8952
bk0: 640a 17469i bk1: 640a 17135i bk2: 640a 15566i bk3: 640a 15221i bk4: 640a 15001i bk5: 640a 15345i bk6: 576a 19740i bk7: 576a 19576i bk8: 576a 19716i bk9: 576a 19518i bk10: 576a 18663i bk11: 576a 18406i bk12: 576a 18250i bk13: 576a 18474i bk14: 576a 18474i bk15: 576a 18534i 

------------------------------------------------------------------------

Row_Buffer_Locality = 0.816042
Row_Buffer_Locality_read = 1.000000
Row_Buffer_Locality_write = 0.632083
Bank_Level_Parallism = 11.044531
Bank_Level_Parallism_Col = 10.752338
Bank_Level_Parallism_Ready = 6.058437
write_to_read_ratio_blp_rw_average = 0.471389
GrpLevelPara = 1.000000 

BW Util details:
bwutil = 0.815945 
total_CMD = 47062 
util_bw = 38400 
Wasted_Col = 4375 
Wasted_Row = 36 
Idle = 4251 

BW Util Bottlenecks: 
RCDc_limit = 0 
RCDWRc_limit = 797 
WTRc_limit = 21698 
RTWc_limit = 21377 
CCDLc_limit = 0 
rwq = 0 
CCDLc_limit_alone = 0 
WTRc_limit_alone = 21698 
RTWc_limit_alone = 21377 

Commands details: 
total_CMD = 47062 
n_nop = 26446 
Read = 0 
Write = 9600 
L2_Alloc = 9600 
L2_WB = 0 
n_act = 883 
n_pre = 867 
n_ref = 0 
n_req = 4800 
total_req = 19200 

Dual Bus Interface Util: 
issued_total_row = 1750 
issued_total_col = 19200 
Row_Bus_Util =  0.037185 
CoL_Bus_Util = 0.407972 
Either_Row_CoL_Bus_Util = 0.438060 
Issued_on_Two_Bus_Simul_Util = 0.007097 
issued_two_Eff = 0.016201 
queue_avg = 54.686203 


dram_util_bins: 0 0 0 0 0 0 0 0 0 0
dram_eff_bins: 0 0 0 0 0 0 0 0 0 0
mrqq: max=64 avg=54.6862
Memory Partition 5: 
Cache L2_bank_010:
MSHR contents

Cache L2_bank_011:
MSHR contents

In Dram Latency Queue (total = 0): 
DRAM[5]: 16 bks, busW=4 BL=8 CL=12, tRRD=6 tCCD=2, tRCD=12 tRAS=28 tRP=12 tRC=40
n_cmd=47062 n_nop=26286 n_act=975 n_pre=959 n_ref_event=0 n_req=4800 n_rd=0 n_rd_L2_A=9600 n_write=9600 n_wr_bk=0 bw_util=0.8159
n_activity=43404 dram_eff=0.8847
bk0: 640a 18267i bk1: 640a 17778i bk2: 640a 18195i bk3: 640a 17921i bk4: 640a 16604i bk5: 640a 16224i bk6: 576a 18071i bk7: 576a 18023i bk8: 576a 17559i bk9: 576a 17347i bk10: 576a 18296i bk11: 576a 18191i bk12: 576a 19659i bk13: 576a 19278i bk14: 576a 19481i bk15: 576a 19078i 

------------------------------------------------------------------------

Row_Buffer_Locality = 0.796875
Row_Buffer_Locality_read = 0.999167
Row_Buffer_Locality_write = 0.594583
Bank_Level_Parallism = 10.813190
Bank_Level_Parallism_Col = 10.516251
Bank_Level_Parallism_Ready = 5.982679
write_to_read_ratio_blp_rw_average = 0.465258
GrpLevelPara = 1.000000 

BW Util details:
bwutil = 0.815945 
total_CMD = 47062 
util_bw = 38400 
Wasted_Col = 4738 
Wasted_Row = 139 
Idle = 3785 

BW Util Bottlenecks: 
RCDc_limit = 1 
RCDWRc_limit = 987 
WTRc_limit = 22537 
RTWc_limit = 20612 
CCDLc_limit = 0 
rwq = 0 
CCDLc_limit_alone = 0 
WTRc_limit_alone = 22537 
RTWc_limit_alone = 20612 

Commands details: 
total_CMD = 47062 
n_nop = 26286 
Read = 0 
Write = 9600 
L2_Alloc = 9600 
L2_WB = 0 
n_act = 975 
n_pre = 959 
n_ref = 0 
n_req = 4800 
total_req = 19200 

Dual Bus Interface Util: 
issued_total_row = 1934 
issued_total_col = 19200 
Row_Bus_Util =  0.041095 
CoL_Bus_Util = 0.407972 
Either_Row_CoL_Bus_Util = 0.441460 
Issued_on_Two_Bus_Simul_Util = 0.007607 
issued_two_Eff = 0.017231 
queue_avg = 45.245720 


dram_util_bins: 0 0 0 0 0 0 0 0 0 0
dram_eff_bins: 0 0 0 0 0 0 0 0 0 0
mrqq: max=64 avg=45.2457
Memory Partition 6: 
Cache L2_bank_012:
MSHR contents
MSHR: tag=0xc00c1e00, atomic=0 1 entries : 0x7f110b8c0af0 :  mf: uid=101894, sid18:w30, part=6, addr=0xc00c1e00, load , size=128, unknown  status = IN_PARTITION_DRAM (30249), 

Cache L2_bank_013:
MSHR contents
MSHR: tag=0xc00c1e80, atomic=0 1 entries : 0x7f110bb88590 :  mf: uid=101891, sid18:w30, part=6, addr=0xc00c1e80, load , size=128, unknown  status = IN_PARTITION_DRAM (30251), 

In Dram Latency Queue (total = 0): 
DRAM[6]: 16 bks, busW=4 BL=8 CL=12, tRRD=6 tCCD=2, tRCD=12 tRAS=28 tRP=12 tRC=40
n_cmd=47062 n_nop=26341 n_act=931 n_pre=915 n_ref_event=0 n_req=4800 n_rd=0 n_rd_L2_A=9597 n_write=9600 n_wr_bk=0 bw_util=0.8158
n_activity=42850 dram_eff=0.896
bk0: 640a 16331i bk1: 637a 16071i bk2: 640a 15312i bk3: 640a 15078i bk4: 640a 14729i bk5: 640a 14542i bk6: 576a 18500i bk7: 576a 18736i bk8: 576a 18980i bk9: 576a 18999i bk10: 576a 19212i bk11: 576a 18143i bk12: 576a 18575i bk13: 576a 18286i bk14: 576a 18813i bk15: 576a 18345i 

------------------------------------------------------------------------

Row_Buffer_Locality = 0.806042
Row_Buffer_Locality_read = 0.999583
Row_Buffer_Locality_write = 0.612500
Bank_Level_Parallism = 11.203984
Bank_Level_Parallism_Col = 10.897549
Bank_Level_Parallism_Ready = 6.154761
write_to_read_ratio_blp_rw_average = 0.469451
GrpLevelPara = 1.000000 

BW Util details:
bwutil = 0.815817 
total_CMD = 47062 
util_bw = 38394 
Wasted_Col = 4335 
Wasted_Row = 51 
Idle = 4282 

BW Util Bottlenecks: 
RCDc_limit = 0 
RCDWRc_limit = 844 
WTRc_limit = 21828 
RTWc_limit = 21402 
CCDLc_limit = 0 
rwq = 0 
CCDLc_limit_alone = 0 
WTRc_limit_alone = 21828 
RTWc_limit_alone = 21402 

Commands details: 
total_CMD = 47062 
n_nop = 26341 
Read = 0 
Write = 9600 
L2_Alloc = 9597 
L2_WB = 0 
n_act = 931 
n_pre = 915 
n_ref = 0 
n_req = 4800 
total_req = 19197 

Dual Bus Interface Util: 
issued_total_row = 1846 
issued_total_col = 19197 
Row_Bus_Util =  0.039225 
CoL_Bus_Util = 0.407909 
Either_Row_CoL_Bus_Util = 0.440292 
Issued_on_Two_Bus_Simul_Util = 0.006842 
issued_two_Eff = 0.015540 
queue_avg = 53.976837 


dram_util_bins: 0 0 0 0 0 0 0 0 0 0
dram_eff_bins: 0 0 0 0 0 0 0 0 0 0
mrqq: max=64 avg=53.9768
Memory Partition 7: 
Cache L2_bank_014:
MSHR contents

Cache L2_bank_015:
MSHR contents

In Dram Latency Queue (total = 0): 
DRAM[7]: 16 bks, busW=4 BL=8 CL=12, tRRD=6 tCCD=2, tRCD=12 tRAS=28 tRP=12 tRC=40
n_cmd=47062 n_nop=26210 n_act=1007 n_pre=991 n_ref_event=0 n_req=4800 n_rd=0 n_rd_L2_A=9600 n_write=9600 n_wr_bk=0 bw_util=0.8159
n_activity=43292 dram_eff=0.887
bk0: 640a 17919i bk1: 640a 18016i bk2: 640a 17645i bk3: 640a 17122i bk4: 640a 16674i bk5: 640a 16615i bk6: 576a 18887i bk7: 576a 18490i bk8: 576a 18133i bk9: 576a 17862i bk10: 576a 18445i bk11: 576a 18401i bk12: 576a 19070i bk13: 576a 18648i bk14: 576a 19620i bk15: 576a 19226i 

------------------------------------------------------------------------

Row_Buffer_Locality = 0.790208
Row_Buffer_Locality_read = 0.999583
Row_Buffer_Locality_write = 0.580833
Bank_Level_Parallism = 10.818677
Bank_Level_Parallism_Col = 10.492546
Bank_Level_Parallism_Ready = 5.976469
write_to_read_ratio_blp_rw_average = 0.466693
GrpLevelPara = 1.000000 

BW Util details:
bwutil = 0.815945 
total_CMD = 47062 
util_bw = 38400 
Wasted_Col = 4689 
Wasted_Row = 89 
Idle = 3884 

BW Util Bottlenecks: 
RCDc_limit = 0 
RCDWRc_limit = 927 
WTRc_limit = 21922 
RTWc_limit = 20936 
CCDLc_limit = 0 
rwq = 0 
CCDLc_limit_alone = 0 
WTRc_limit_alone = 21922 
RTWc_limit_alone = 20936 

Commands details: 
total_CMD = 47062 
n_nop = 26210 
Read = 0 
Write = 9600 
L2_Alloc = 9600 
L2_WB = 0 
n_act = 1007 
n_pre = 991 
n_ref = 0 
n_req = 4800 
total_req = 19200 

Dual Bus Interface Util: 
issued_total_row = 1998 
issued_total_col = 19200 
Row_Bus_Util =  0.042455 
CoL_Bus_Util = 0.407972 
Either_Row_CoL_Bus_Util = 0.443075 
Issued_on_Two_Bus_Simul_Util = 0.007352 
issued_two_Eff = 0.016593 
queue_avg = 44.966129 


dram_util_bins: 0 0 0 0 0 0 0 0 0 0
dram_eff_bins: 0 0 0 0 0 0 0 0 0 0
mrqq: max=64 avg=44.9661

========= L2 cache stats =========
L2_cache_bank[0]: Access = 1220, Miss = 1201, Miss_rate = 0.984, Pending_hits = 19, Reservation_fails = 8
L2_cache_bank[1]: Access = 1200, Miss = 1200, Miss_rate = 1.000, Pending_hits = 0, Reservation_fails = 8
L2_cache_bank[2]: Access = 1200, Miss = 1200, Miss_rate = 1.000, Pending_hits = 0, Reservation_fails = 6
L2_cache_bank[3]: Access = 1220, Miss = 1201, Miss_rate = 0.984, Pending_hits = 19, Reservation_fails = 7
L2_cache_bank[4]: Access = 1220, Miss = 1201, Miss_rate = 0.984, Pending_hits = 19, Reservation_fails = 9
L2_cache_bank[5]: Access = 1220, Miss = 1201, Miss_rate = 0.984, Pending_hits = 19, Reservation_fails = 12
L2_cache_bank[6]: Access = 1200, Miss = 1200, Miss_rate = 1.000, Pending_hits = 0, Reservation_fails = 5
L2_cache_bank[7]: Access = 1200, Miss = 1200, Miss_rate = 1.000, Pending_hits = 0, Reservation_fails = 5
L2_cache_bank[8]: Access = 1200, Miss = 1200, Miss_rate = 1.000, Pending_hits = 0, Reservation_fails = 14
L2_cache_bank[9]: Access = 1200, Miss = 1200, Miss_rate = 1.000, Pending_hits = 0, Reservation_fails = 9
L2_cache_bank[10]: Access = 1200, Miss = 1200, Miss_rate = 1.000, Pending_hits = 0, Reservation_fails = 6
L2_cache_bank[11]: Access = 1200, Miss = 1200, Miss_rate = 1.000, Pending_hits = 0, Reservation_fails = 6
L2_cache_bank[12]: Access = 1200, Miss = 1200, Miss_rate = 1.000, Pending_hits = 0, Reservation_fails = 13
L2_cache_bank[13]: Access = 1200, Miss = 1200, Miss_rate = 1.000, Pending_hits = 0, Reservation_fails = 9
L2_cache_bank[14]: Access = 1200, Miss = 1200, Miss_rate = 1.000, Pending_hits = 0, Reservation_fails = 4
L2_cache_bank[15]: Access = 1200, Miss = 1200, Miss_rate = 1.000, Pending_hits = 0, Reservation_fails = 1
L2_total_cache_accesses = 19280
L2_total_cache_misses = 19204
L2_total_cache_miss_rate = 0.9961
L2_total_cache_pending_hits = 76
L2_total_cache_reservation_fails = 122
L2_total_cache_breakdown:
	L2_cache_stats_breakdown[GLOBAL_ACC_R][HIT] = 0
	L2_cache_stats_breakdown[GLOBAL_ACC_R][HIT_RESERVED] = 0
	L2_cache_stats_breakdown[GLOBAL_ACC_R][MISS] = 0
	L2_cache_stats_breakdown[GLOBAL_ACC_R][RESERVATION_FAIL] = 0
	L2_cache_stats_breakdown[GLOBAL_ACC_R][SECTOR_MISS] = 0
	L2_cache_stats_breakdown[GLOBAL_ACC_R][MSHR_HIT] = 0
	L2_cache_stats_breakdown[LOCAL_ACC_R][HIT] = 0
	L2_cache_stats_breakdown[LOCAL_ACC_R][HIT_RESERVED] = 0
	L2_cache_stats_breakdown[LOCAL_ACC_R][MISS] = 0
	L2_cache_stats_breakdown[LOCAL_ACC_R][RESERVATION_FAIL] = 0
	L2_cache_stats_breakdown[LOCAL_ACC_R][SECTOR_MISS] = 0
	L2_cache_stats_breakdown[LOCAL_ACC_R][MSHR_HIT] = 0
	L2_cache_stats_breakdown[CONST_ACC_R][HIT] = 0
	L2_cache_stats_breakdown[CONST_ACC_R][HIT_RESERVED] = 19
	L2_cache_stats_breakdown[CONST_ACC_R][MISS] = 1
	L2_cache_stats_breakdown[CONST_ACC_R][RESERVATION_FAIL] = 0
	L2_cache_stats_breakdown[CONST_ACC_R][SECTOR_MISS] = 0
	L2_cache_stats_breakdown[CONST_ACC_R][MSHR_HIT] = 19
	L2_cache_stats_breakdown[TEXTURE_ACC_R][HIT] = 0
	L2_cache_stats_breakdown[TEXTURE_ACC_R][HIT_RESERVED] = 0
	L2_cache_stats_breakdown[TEXTURE_ACC_R][MISS] = 0
	L2_cache_stats_breakdown[TEXTURE_ACC_R][RESERVATION_FAIL] = 0
	L2_cache_stats_breakdown[TEXTURE_ACC_R][SECTOR_MISS] = 0
	L2_cache_stats_breakdown[TEXTURE_ACC_R][MSHR_HIT] = 0
	L2_cache_stats_breakdown[GLOBAL_ACC_W][HIT] = 0
	L2_cache_stats_breakdown[GLOBAL_ACC_W][HIT_RESERVED] = 0
	L2_cache_stats_breakdown[GLOBAL_ACC_W][MISS] = 19200
	L2_cache_stats_breakdown[GLOBAL_ACC_W][RESERVATION_FAIL] = 122
	L2_cache_stats_breakdown[GLOBAL_ACC_W][SECTOR_MISS] = 0
	L2_cache_stats_breakdown[GLOBAL_ACC_W][MSHR_HIT] = 0
	L2_cache_stats_breakdown[LOCAL_ACC_W][HIT] = 0
	L2_cache_stats_breakdown[LOCAL_ACC_W][HIT_RESERVED] = 0
	L2_cache_stats_breakdown[LOCAL_ACC_W][MISS] = 0
	L2_cache_stats_breakdown[LOCAL_ACC_W][RESERVATION_FAIL] = 0
	L2_cache_stats_breakdown[LOCAL_ACC_W][SECTOR_MISS] = 0
	L2_cache_stats_breakdown[LOCAL_ACC_W][MSHR_HIT] = 0
	L2_cache_stats_breakdown[L1_WRBK_ACC][HIT] = 0
	L2_cache_stats_breakdown[L1_WRBK_ACC][HIT_RESERVED] = 0
	L2_cache_stats_breakdown[L1_WRBK_ACC][MISS] = 0
	L2_cache_stats_breakdown[L1_WRBK_ACC][RESERVATION_FAIL] = 0
	L2_cache_stats_breakdown[L1_WRBK_ACC][SECTOR_MISS] = 0
	L2_cache_stats_breakdown[L1_WRBK_ACC][MSHR_HIT] = 0
	L2_cache_stats_breakdown[L2_WRBK_ACC][HIT] = 0
	L2_cache_stats_breakdown[L2_WRBK_ACC][HIT_RESERVED] = 0
	L2_cache_stats_breakdown[L2_WRBK_ACC][MISS] = 0
[...]

------------------------------------------------------------------------

Row_Buffer_Locality = 0.809291
Row_Buffer_Locality_read = 0.880371
Row_Buffer_Locality_write = 0.712082
Bank_Level_Parallism = 10.169070
Bank_Level_Parallism_Col = 9.873089
Bank_Level_Parallism_Ready = 5.466799
write_to_read_ratio_blp_rw_average = 0.454985
GrpLevelPara = 1.000000 

BW Util details:
bwutil = 0.530500 
total_CMD = 194409 
util_bw = 103134 
Wasted_Col = 11487 
Wasted_Row = 543 
Idle = 79245 

BW Util Bottlenecks: 
RCDc_limit = 1351 
RCDWRc_limit = 1379 
WTRc_limit = 47199 
RTWc_limit = 46444 
CCDLc_limit = 0 
rwq = 0 
CCDLc_limit_alone = 0 
WTRc_limit_alone = 47199 
RTWc_limit_alone = 46444 

Commands details: 
total_CMD = 194409 
n_nop = 138725 
Read = 11132 
Write = 18655 
L2_Alloc = 18660 
L2_WB = 3120 
n_act = 2459 
n_pre = 2443 
n_ref = 0 
n_req = 12894 
total_req = 51567 

Dual Bus Interface Util: 
issued_total_row = 4902 
issued_total_col = 51567 
Row_Bus_Util =  0.025215 
CoL_Bus_Util = 0.265250 
Either_Row_CoL_Bus_Util = 0.286427 
Issued_on_Two_Bus_Simul_Util = 0.004038 
issued_two_Eff = 0.014097 
queue_avg = 31.914854 


dram_util_bins: 0 0 0 0 0 0 0 0 0 0
dram_eff_bins: 0 0 0 0 0 0 0 0 0 0
mrqq: max=64 avg=31.9149
Memory Partition 3: 
Cache L2_bank_006:
MSHR contents

Cache L2_bank_007:
MSHR contents

In Dram Latency Queue (total = 0): 
DRAM[3]: 16 bks, busW=4 BL=8 CL=12, tRRD=6 tCCD=2, tRCD=12 tRAS=28 tRP=12 tRC=40
n_cmd=194409 n_nop=138900 n_act=2409 n_pre=2393 n_ref_event=0 n_req=12879 n_rd=11144 n_rd_L2_A=18648 n_write=18645 n_wr_bk=3064 bw_util=0.5298
n_activity=117304 dram_eff=0.8781
bk0: 2100a 121540i bk1: 2100a 121533i bk2: 2144a 116742i bk3: 2144a 115880i bk4: 2012a 119327i bk5: 2012a 119101i bk6: 1640a 126270i bk7: 1640a 125172i bk8: 1896a 124076i bk9: 1896a 122739i bk10: 1892a 124608i bk11: 1892a 123151i bk12: 1696a 125550i bk13: 1696a 124908i bk14: 1516a 132575i bk15: 1516a 132159i 

------------------------------------------------------------------------

Row_Buffer_Locality = 0.812951
Row_Buffer_Locality_read = 0.887352
Row_Buffer_Locality_write = 0.710919
Bank_Level_Parallism = 9.956896
Bank_Level_Parallism_Col = 9.688991
Bank_Level_Parallism_Ready = 5.380555
write_to_read_ratio_blp_rw_average = 0.457320
GrpLevelPara = 1.000000 

BW Util details:
bwutil = 0.529821 
total_CMD = 194409 
util_bw = 103002 
Wasted_Col = 11752 
Wasted_Row = 717 
Idle = 78938 

BW Util Bottlenecks: 
RCDc_limit = 1420 
RCDWRc_limit = 1475 
WTRc_limit = 45891 
RTWc_limit = 46629 
CCDLc_limit = 0 
rwq = 0 
CCDLc_limit_alone = 0 
WTRc_limit_alone = 45891 
RTWc_limit_alone = 46629 

Commands details: 
total_CMD = 194409 
n_nop = 138900 
Read = 11144 
Write = 18645 
L2_Alloc = 18648 
L2_WB = 3064 
n_act = 2409 
n_pre = 2393 
n_ref = 0 
n_req = 12879 
total_req = 51501 

Dual Bus Interface Util: 
issued_total_row = 4802 
issued_total_col = 51501 
Row_Bus_Util =  0.024701 
CoL_Bus_Util = 0.264911 
Either_Row_CoL_Bus_Util = 0.285527 
Issued_on_Two_Bus_Simul_Util = 0.004084 
issued_two_Eff = 0.014304 
queue_avg = 29.584545 


dram_util_bins: 0 0 0 0 0 0 0 0 0 0
dram_eff_bins: 0 0 0 0 0 0 0 0 0 0
mrqq: max=64 avg=29.5845
Memory Partition 4: 
Cache L2_bank_008:
MSHR contents

Cache L2_bank_009:
MSHR contents

In Dram Latency Queue (total = 0): 
DRAM[4]: 16 bks, busW=4 BL=8 CL=12, tRRD=6 tCCD=2, tRCD=12 tRAS=28 tRP=12 tRC=40
n_cmd=194409 n_nop=138833 n_act=2439 n_pre=2423 n_ref_event=0 n_req=12877 n_rd=11144 n_rd_L2_A=18616 n_write=18613 n_wr_bk=3120 bw_util=0.5297
n_activity=117203 dram_eff=0.8787
bk0: 2068a 123538i bk1: 2068a 123158i bk2: 2048a 118773i bk3: 2048a 117944i bk4: 1992a 118740i bk5: 1992a 118913i bk6: 1716a 125009i bk7: 1716a 124475i bk8: 1888a 124690i bk9: 1884a 124044i bk10: 1864a 123502i bk11: 1860a 122800i bk12: 1732a 123961i bk13: 1732a 123399i bk14: 1576a 131980i bk15: 1576a 131982i 

------------------------------------------------------------------------

Row_Buffer_Locality = 0.810593
Row_Buffer_Locality_read = 0.879167
Row_Buffer_Locality_write = 0.716756
Bank_Level_Parallism = 9.937993
Bank_Level_Parallism_Col = 9.666076
Bank_Level_Parallism_Ready = 5.401984
write_to_read_ratio_blp_rw_average = 0.456217
GrpLevelPara = 1.000000 

BW Util details:
bwutil = 0.529739 
total_CMD = 194409 
util_bw = 102986 
Wasted_Col = 11803 
Wasted_Row = 723 
Idle = 78897 

BW Util Bottlenecks: 
RCDc_limit = 1388 
RCDWRc_limit = 1373 
WTRc_limit = 45894 
RTWc_limit = 46618 
CCDLc_limit = 0 
rwq = 0 
CCDLc_limit_alone = 0 
WTRc_limit_alone = 45894 
RTWc_limit_alone = 46618 

Commands details: 
total_CMD = 194409 
n_nop = 138833 
Read = 11144 
Write = 18613 
L2_Alloc = 18616 
L2_WB = 3120 
n_act = 2439 
n_pre = 2423 
n_ref = 0 
n_req = 12877 
total_req = 51493 

Dual Bus Interface Util: 
issued_total_row = 4862 
issued_total_col = 51493 
Row_Bus_Util =  0.025009 
CoL_Bus_Util = 0.264869 
Either_Row_CoL_Bus_Util = 0.285872 
Issued_on_Two_Bus_Simul_Util = 0.004007 
issued_two_Eff = 0.014017 
queue_avg = 31.510054 


dram_util_bins: 0 0 0 0 0 0 0 0 0 0
dram_eff_bins: 0 0 0 0 0 0 0 0 0 0
mrqq: max=64 avg=31.5101
Memory Partition 5: 
Cache L2_bank_010:
MSHR contents

Cache L2_bank_011:
MSHR contents

In Dram Latency Queue (total = 0): 
DRAM[5]: 16 bks, busW=4 BL=8 CL=12, tRRD=6 tCCD=2, tRCD=12 tRAS=28 tRP=12 tRC=40
n_cmd=194409 n_nop=138893 n_act=2404 n_pre=2388 n_ref_event=0 n_req=12879 n_rd=11280 n_rd_L2_A=18592 n_write=18587 n_wr_bk=3048 bw_util=0.5299
n_activity=117386 dram_eff=0.8776
bk0: 2084a 123258i bk1: 2084a 122357i bk2: 2164a 121768i bk3: 2164a 119751i bk4: 2016a 118310i bk5: 2016a 118816i bk6: 1656a 126462i bk7: 1656a 125948i bk8: 1884a 124031i bk9: 1884a 123348i bk10: 1908a 124312i bk11: 1908a 121852i bk12: 1696a 126832i bk13: 1692a 124503i bk14: 1532a 133665i bk15: 1528a 133290i 

------------------------------------------------------------------------

Row_Buffer_Locality = 0.813340
Row_Buffer_Locality_read = 0.886984
Row_Buffer_Locality_write = 0.711698
Bank_Level_Parallism = 9.802860
Bank_Level_Parallism_Col = 9.545703
Bank_Level_Parallism_Ready = 5.321455
write_to_read_ratio_blp_rw_average = 0.455876
GrpLevelPara = 1.000000 

BW Util details:
bwutil = 0.529883 
total_CMD = 194409 
util_bw = 103014 
Wasted_Col = 12089 
Wasted_Row = 806 
Idle = 78500 

BW Util Bottlenecks: 
RCDc_limit = 1475 
RCDWRc_limit = 1546 
WTRc_limit = 46669 
RTWc_limit = 46082 
CCDLc_limit = 0 
rwq = 0 
CCDLc_limit_alone = 0 
WTRc_limit_alone = 46669 
RTWc_limit_alone = 46082 

Commands details: 
total_CMD = 194409 
n_nop = 138893 
Read = 11280 
Write = 18587 
L2_Alloc = 18592 
L2_WB = 3048 
n_act = 2404 
n_pre = 2388 
n_ref = 0 
n_req = 12879 
total_req = 51507 

Dual Bus Interface Util: 
issued_total_row = 4792 
issued_total_col = 51507 
Row_Bus_Util =  0.024649 
CoL_Bus_Util = 0.264941 
Either_Row_CoL_Bus_Util = 0.285563 
Issued_on_Two_Bus_Simul_Util = 0.004028 
issued_two_Eff = 0.014104 
queue_avg = 28.846252 


dram_util_bins: 0 0 0 0 0 0 0 0 0 0
dram_eff_bins: 0 0 0 0 0 0 0 0 0 0
mrqq: max=64 avg=28.8463
Memory Partition 6: 
Cache L2_bank_012:
MSHR contents

Cache L2_bank_013:
MSHR contents

In Dram Latency Queue (total = 0): 
DRAM[6]: 16 bks, busW=4 BL=8 CL=12, tRRD=6 tCCD=2, tRCD=12 tRAS=28 tRP=12 tRC=40
n_cmd=194409 n_nop=138461 n_act=2530 n_pre=2514 n_ref_event=0 n_req=12922 n_rd=11232 n_rd_L2_A=18656 n_write=18650 n_wr_bk=3144 bw_util=0.5317
n_activity=117750 dram_eff=0.8778
bk0: 2092a 121863i bk1: 2092a 120234i bk2: 2088a 119808i bk3: 2088a 117520i bk4: 1980a 116482i bk5: 1980a 115729i bk6: 1712a 121962i bk7: 1712a 122395i bk8: 1896a 122730i bk9: 1896a 122837i bk10: 1868a 123828i bk11: 1868a 121581i bk12: 1732a 125779i bk13: 1732a 124579i bk14: 1576a 129487i bk15: 1576a 128315i 

------------------------------------------------------------------------

Row_Buffer_Locality = 0.804210
Row_Buffer_Locality_read = 0.873528
Row_Buffer_Locality_write = 0.709174
Bank_Level_Parallism = 10.088592
Bank_Level_Parallism_Col = 9.802450
Bank_Level_Parallism_Ready = 5.468665
write_to_read_ratio_blp_rw_average = 0.454825
GrpLevelPara = 1.000000 

BW Util details:
bwutil = 0.531683 
total_CMD = 194409 
util_bw = 103364 
Wasted_Col = 11937 
Wasted_Row = 683 
Idle = 78425 

BW Util Bottlenecks: 
RCDc_limit = 1568 
RCDWRc_limit = 1501 
WTRc_limit = 46628 
RTWc_limit = 47486 
CCDLc_limit = 0 
rwq = 0 
CCDLc_limit_alone = 0 
WTRc_limit_alone = 46628 
RTWc_limit_alone = 47486 

Commands details: 
total_CMD = 194409 
n_nop = 138461 
Read = 11232 
Write = 18650 
L2_Alloc = 18656 
L2_WB = 3144 
n_act = 2530 
n_pre = 2514 
n_ref = 0 
n_req = 12922 
total_req = 51682 

Dual Bus Interface Util: 
issued_total_row = 5044 
issued_total_col = 51682 
Row_Bus_Util =  0.025945 
CoL_Bus_Util = 0.265842 
Either_Row_CoL_Bus_Util = 0.287785 
Issued_on_Two_Bus_Simul_Util = 0.004002 
issued_two_Eff = 0.013906 
queue_avg = 31.394884 


dram_util_bins: 0 0 0 0 0 0 0 0 0 0
dram_eff_bins: 0 0 0 0 0 0 0 0 0 0
mrqq: max=64 avg=31.3949
Memory Partition 7: 
Cache L2_bank_014:
MSHR contents

Cache L2_bank_015:
MSHR contents

In Dram Latency Queue (total = 0): 
DRAM[7]: 16 bks, busW=4 BL=8 CL=12, tRRD=6 tCCD=2, tRCD=12 tRAS=28 tRP=12 tRC=40
n_cmd=194409 n_nop=138605 n_act=2505 n_pre=2489 n_ref_event=0 n_req=12906 n_rd=11280 n_rd_L2_A=18624 n_write=18620 n_wr_bk=3088 bw_util=0.531
n_activity=117862 dram_eff=0.8758
bk0: 2072a 122774i bk1: 2064a 123023i bk2: 2140a 121421i bk3: 2140a 119738i bk4: 2048a 118454i bk5: 2048a 118075i bk6: 1660a 126532i bk7: 1660a 124981i bk8: 1896a 125450i bk9: 1896a 123432i bk10: 1880a 126012i bk11: 1880a 125121i bk12: 1716a 125110i bk13: 1716a 124116i bk14: 1544a 132872i bk15: 1544a 132702i 

------------------------------------------------------------------------

Row_Buffer_Locality = 0.805904
Row_Buffer_Locality_read = 0.885768
Row_Buffer_Locality_write = 0.695948
Bank_Level_Parallism = 9.772018
Bank_Level_Parallism_Col = 9.501021
Bank_Level_Parallism_Ready = 5.286696
write_to_read_ratio_blp_rw_average = 0.454679
GrpLevelPara = 1.000000 

BW Util details:
bwutil = 0.530963 
total_CMD = 194409 
util_bw = 103224 
Wasted_Col = 12097 
Wasted_Row = 835 
Idle = 78253 

BW Util Bottlenecks: 
RCDc_limit = 1288 
RCDWRc_limit = 1525 
WTRc_limit = 46562 
RTWc_limit = 45774 
CCDLc_limit = 0 
rwq = 0 
CCDLc_limit_alone = 0 
WTRc_limit_alone = 46562 
RTWc_limit_alone = 45774 

Commands details: 
total_CMD = 194409 
n_nop = 138605 
Read = 11280 
Write = 18620 
L2_Alloc = 18624 
L2_WB = 3088 
n_act = 2505 
n_pre = 2489 
n_ref = 0 
n_req = 12906 
total_req = 51612 

Dual Bus Interface Util: 
issued_total_row = 4994 
issued_total_col = 51612 
Row_Bus_Util =  0.025688 
CoL_Bus_Util = 0.265482 
Either_Row_CoL_Bus_Util = 0.287044 
Issued_on_Two_Bus_Simul_Util = 0.004125 
issued_two_Eff = 0.014372 
queue_avg = 28.658875 


dram_util_bins: 0 0 0 0 0 0 0 0 0 0
dram_eff_bins: 0 0 0 0 0 0 0 0 0 0
mrqq: max=64 avg=28.6589

========= L2 cache stats =========
L2_cache_bank[0]: Access = 6056, Miss = 3712, Miss_rate = 0.613, Pending_hits = 38, Reservation_fails = 48
L2_cache_bank[1]: Access = 6036, Miss = 3711, Miss_rate = 0.615, Pending_hits = 18, Reservation_fails = 40
L2_cache_bank[2]: Access = 6036, Miss = 3713, Miss_rate = 0.615, Pending_hits = 0, Reservation_fails = 29
L2_cache_bank[3]: Access = 6036, Miss = 3711, Miss_rate = 0.615, Pending_hits = 19, Reservation_fails = 19
L2_cache_bank[4]: Access = 6036, Miss = 3724, Miss_rate = 0.617, Pending_hits = 20, Reservation_fails = 21
L2_cache_bank[5]: Access = 6036, Miss = 3724, Miss_rate = 0.617, Pending_hits = 19, Reservation_fails = 29
L2_cache_bank[6]: Access = 6016, Miss = 3724, Miss_rate = 0.619, Pending_hits = 1, Reservation_fails = 20
L2_cache_bank[7]: Access = 6016, Miss = 3724, Miss_rate = 0.619, Pending_hits = 2, Reservation_fails = 25
L2_cache_bank[8]: Access = 6016, Miss = 3721, Miss_rate = 0.619, Pending_hits = 1, Reservation_fails = 46
L2_cache_bank[9]: Access = 6016, Miss = 3719, Miss_rate = 0.618, Pending_hits = 2, Reservation_fails = 38
L2_cache_bank[10]: Access = 6036, Miss = 3735, Miss_rate = 0.619, Pending_hits = 20, Reservation_fails = 49
L2_cache_bank[11]: Access = 6036, Miss = 3733, Miss_rate = 0.618, Pending_hits = 19, Reservation_fails = 48
L2_cache_bank[12]: Access = 6036, Miss = 3736, Miss_rate = 0.619, Pending_hits = 19, Reservation_fails = 32
L2_cache_bank[13]: Access = 6036, Miss = 3736, Miss_rate = 0.619, Pending_hits = 19, Reservation_fails = 28
L2_cache_bank[14]: Access = 6036, Miss = 3739, Miss_rate = 0.619, Pending_hits = 21, Reservation_fails = 30
L2_cache_bank[15]: Access = 6016, Miss = 3737, Miss_rate = 0.621, Pending_hits = 0, Reservation_fails = 36
L2_total_cache_accesses = 96496
L2_total_cache_misses = 59599
L2_total_cache_miss_rate = 0.6176
L2_total_cache_pending_hits = 218
L2_total_cache_reservation_fails = 538
L2_total_cache_breakdown:
	L2_cache_stats_breakdown[GLOBAL_ACC_R][HIT] = 28884
	L2_cache_stats_breakdown[GLOBAL_ACC_R][HIT_RESERVED] = 0
	L2_cache_stats_breakdown[GLOBAL_ACC_R][MISS] = 22316
	L2_cache_stats_breakdown[GLOBAL_ACC_R][RESERVATION_FAIL] = 68
	L2_cache_stats_breakdown[GLOBAL_ACC_R][SECTOR_MISS] = 0
	L2_cache_stats_breakdown[GLOBAL_ACC_R][MSHR_HIT] = 0
	L2_cache_stats_breakdown[LOCAL_ACC_R][HIT] = 0
	L2_cache_stats_breakdown[LOCAL_ACC_R][HIT_RESERVED] = 0
	L2_cache_stats_breakdown[LOCAL_ACC_R][MISS] = 0
	L2_cache_stats_breakdown[LOCAL_ACC_R][RESERVATION_FAIL] = 0
	L2_cache_stats_breakdown[LOCAL_ACC_R][SECTOR_MISS] = 0
	L2_cache_stats_breakdown[LOCAL_ACC_R][MSHR_HIT] = 0
	L2_cache_stats_breakdown[CONST_ACC_R][HIT] = 0
	L2_cache_stats_breakdown[CONST_ACC_R][HIT_RESERVED] = 19
	L2_cache_stats_breakdown[CONST_ACC_R][MISS] = 1
	L2_cache_stats_breakdown[CONST_ACC_R][RESERVATION_FAIL] = 0
	L2_cache_stats_breakdown[CONST_ACC_R][SECTOR_MISS] = 0
	L2_cache_stats_breakdown[CONST_ACC_R][MSHR_HIT] = 19
	L2_cache_stats_breakdown[TEXTURE_ACC_R][HIT] = 0
	L2_cache_stats_breakdown[TEXTURE_ACC_R][HIT_RESERVED] = 0
	L2_cache_stats_breakdown[TEXTURE_ACC_R][MISS] = 0
	L2_cache_stats_breakdown[TEXTURE_ACC_R][RESERVATION_FAIL] = 0
	L2_cache_stats_breakdown[TEXTURE_ACC_R][SECTOR_MISS] = 0
	L2_cache_stats_breakdown[TEXTURE_ACC_R][MSHR_HIT] = 0
	L2_cache_stats_breakdown[GLOBAL_ACC_W][HIT] = 7775
	L2_cache_stats_breakdown[GLOBAL_ACC_W][HIT_RESERVED] = 10
	L2_cache_stats_breakdown[GLOBAL_ACC_W][MISS] = 37271
	L2_cache_stats_breakdown[GLOBAL_ACC_W][RESERVATION_FAIL] = 470
	L2_cache_stats_breakdown[GLOBAL_ACC_W][SECTOR_MISS] = 0
	L2_cache_stats_breakdown[GLOBAL_ACC_W][MSHR_HIT] = 0
	L2_cache_stats_breakdown[LOCAL_ACC_W][HIT] = 0
	L2_cache_stats_breakdown[LOCAL_ACC_W][HIT_RESERVED] = 0
	L2_cache_stats_breakdown[LOCAL_ACC_W][MISS] = 0
	L2_cache_stats_breakdown[LOCAL_ACC_W][RESERVATION_FAIL] = 0
	L2_cache_stats_breakdown[LOCAL_ACC_W][SECTOR_MISS] = 0
	L2_cache_stats_breakdown[LOCAL_ACC_W][MSHR_HIT] = 0
	L2_cache_stats_breakdown[L1_WRBK_ACC][HIT] = 0
	L2_cache_stats_breakdown[L1_WRBK_ACC][HIT_RESERVED] = 0
	L2_cache_stats_breakdown[L1_WRBK_ACC][MISS] = 0
	L2_cache_stats_breakdown[L1_WRBK_ACC][RESERVATION_FAIL] = 0
	L2_cache_stats_breakdown[L1_WRBK_ACC][SECTOR_MISS] = 0
	L2_cache_stats_breakdown[L1_WRBK_ACC][MSHR_HIT] = 0
	L2_cache_stats_breakdown[L2_WRBK_ACC][HIT] = 0
	L2_cache_stats_breakdown[L2_WRBK_ACC][HIT_RESERVED] = 0
	L2_cache_stats_breakdown[L2_WRBK_ACC][MISS] = 0
	L2_cache_stats_breakdown[L2_WRBK_ACC][RESERVATION_FAIL] = 0
	L2_cache_stats_breakdown[L2_WRBK_ACC][SECTOR_MISS] = 0
	L2_cache_stats_breakdown[L2_WRBK_ACC][MSHR_HIT] = 0
	L2_cache_stats_breakdown[INST_ACC_R][HIT] = 20
	L2_cache_stats_breakdown[INST_ACC_R][HIT_RESERVED] = 189
	L2_cache_stats_breakdown[INST_ACC_R][MISS] = 11
	L2_cache_stats_breakdown[INST_ACC_R][RESERVATION_FAIL] = 0
	L2_cache_stats_breakdown[INST_ACC_R][SECTOR_MISS] = 0
	L2_cache_stats_breakdown[INST_ACC_R][MSHR_HIT] = 189
	L2_cache_stats_breakdown[L1_WR_ALLOC_R][HIT] = 0
	L2_cache_stats_breakdown[L1_WR_ALLOC_R][HIT_RESERVED] = 0
	L2_cache_stats_breakdown[L1_WR_ALLOC_R][MISS] = 0
	L2_cache_stats_breakdown[L1_WR_ALLOC_R][RESERVATION_FAIL] = 0
	L2_cache_stats_breakdown[L1_WR_ALLOC_R][SECTOR_MISS] = 0
	L2_cache_stats_breakdown[L1_WR_ALLOC_R][MSHR_HIT] = 0
	L2_cache_stats_breakdown[L2_WR_ALLOC_R][HIT] = 0
	L2_cache_stats_breakdown[L2_WR_ALLOC_R][HIT_RESERVED] = 0
	L2_cache_stats_breakdown[L2_WR_ALLOC_R][MISS] = 0
	L2_cache_stats_breakdown[L2_WR_ALLOC_R][RESERVATION_FAIL] = 0
	L2_cache_stats_breakdown[L2_WR_ALLOC_R][SECTOR_MISS] = 0
	L2_cache_stats_breakdown[L2_WR_ALLOC_R][MSHR_HIT] = 10
	L2_cache_stats_breakdown[GLOBAL_ACC_R][TOTAL_ACCESS] = 51200
	L2_cache_stats_breakdown[CONST_ACC_R][TOTAL_ACCESS] = 20
	L2_cache_stats_breakdown[GLOBAL_ACC_W][TOTAL_ACCESS] = 45056
	L2_cache_stats_breakdown[INST_ACC_R][TOTAL_ACCESS] = 220
L2_total_cache_reservation_fail_breakdown:
	L2_cache_stats_fail_breakdown[GLOBAL_ACC_R][MISS_QUEUE_FULL] = 68
	L2_cache_stats_fail_breakdown[GLOBAL_ACC_W][MISS_QUEUE_FULL] = 470
L2_cache_data_port_util = 0.077
L2_cache_fill_port_util = 0.119

icnt_total_pkts_mem_to_simt=302216
icnt_total_pkts_simt_to_mem=275952
LD_mem_lat_dist  0 0 0 0 0 0 0 0 0 0 0 0 0 0 0 0 0 0 0 0 0 0 0 0 0 0 0
ST_mem_lat_dist  0 0 0 0 0 0 0 0 0 0 0 0 0 0 0 0 0 0 0 0 0 0 0 0 0 0 0
----------------------------Interconnect-DETAILS--------------------------------
Class 0:
Packet latency average = 88.480520
	minimum = 6.000000
	maximum = 940.000000
Network latency average = 53.238487
	minimum = 6.000000
	maximum = 919.000000
Slowest packet = 178949
Flit latency average = 33.114092
	minimum = 6.000000
	maximum = 919.000000
Slowest flit = 535080
Fragmentation average = 0.012733
	minimum = 0.000000
	maximum = 334.000000
Injected packet rate average = 0.013468
	minimum = 0.000000 (at node 36)
	maximum = 0.021461 (at node 20)
Accepted packet rate average = 0.013468
	minimum = 0.000000 (at node 36)
	maximum = 0.021461 (at node 20)
Injected flit rate average = 0.040010
	minimum = 0.000000 (at node 36)
	maximum = 0.105663 (at node 20)
Accepted flit rate average= 0.040010
	minimum = 0.000000 (at node 36)
	maximum = 0.099297 (at node 15)
Injected packet length average = 2.970723
Accepted packet length average = 2.970723
Total in-flight flits = 0 (0 measured)
====== Overall Traffic Statistics ======
====== Traffic class 0 ======
Packet latency average = 70.714218 (6 samples)
	minimum = 6.000000 (6 samples)
	maximum = 1294.666667 (6 samples)
Network latency average = 44.348539 (6 samples)
	minimum = 6.000000 (6 samples)
	maximum = 1113.166667 (6 samples)
Flit latency average = 32.166381 (6 samples)
	minimum = 6.000000 (6 samples)
	maximum = 1112.500000 (6 samples)
Fragmentation average = 0.674287 (6 samples)
	minimum = 0.000000 (6 samples)
	maximum = 609.833333 (6 samples)
Injected packet rate average = 0.037744 (6 samples)
	minimum = 0.000000 (6 samples)
	maximum = 0.059839 (6 samples)
Accepted packet rate average = 0.037744 (6 samples)
	minimum = 0.000000 (6 samples)
	maximum = 0.059839 (6 samples)
Injected flit rate average = 0.113162 (6 samples)
	minimum = 0.000000 (6 samples)
	maximum = 0.215344 (6 samples)
Accepted flit rate average = 0.113162 (6 samples)
	minimum = 0.000000 (6 samples)
	maximum = 0.208894 (6 samples)
Injected packet size average = 2.998142 (6 samples)
Accepted packet size average = 2.998142 (6 samples)
Hops average = 1.000000 (6 samples)
----------------------------END-of-Interconnect-DETAILS-------------------------


gpgpu_simulation_time = 0 days, 0 hrs, 2 min, 5 sec (125 sec)
gpgpu_simulation_rate = 349071 (inst/sec)
gpgpu_simulation_rate = 999 (cycle/sec)
gpgpu_silicon_slowdown = 1608608x
Function    MBytes/sec  Min (sec)   Max         Average     
Copy        0.215       7.61023     7.61023     7.61023     
Mul         0.186       8.81070     8.81070     8.81070     
Add         0.201       12.21421    12.21421    12.21421    
Triad       0.172       14.31519    14.31519    14.31519    
Dot         0.026       62.86128    62.86128    62.86128    
GPGPU-Sim: *** exit detected ***
